
---------- Begin Simulation Statistics ----------
simSeconds                                   2.083108                       # Number of seconds simulated (Second)
simTicks                                 2083107857500                       # Number of ticks simulated (Tick)
finalTick                                2083107857500                       # Number of ticks from beginning of simulation (restored from checkpoints and never reset) (Tick)
simFreq                                  1000000000000                       # The number of ticks per simulated second ((Tick/Second))
hostSeconds                                   8667.19                       # Real time elapsed on the host (Second)
hostTickRate                                240344031                       # The number of ticks simulated per host second (ticks/s) ((Tick/Second))
hostMemory                                     704660                       # Number of bytes of host memory used (Byte)
simInsts                                   1545989209                       # Number of instructions simulated (Count)
simOps                                     2612657476                       # Number of ops (including micro ops) simulated (Count)
hostInstRate                                   178373                       # Simulator instruction rate (inst/s) ((Count/Second))
hostOpRate                                     301442                       # Simulator op (including micro ops) rate (op/s) ((Count/Second))
system.clk_domain.clock                          1000                       # Clock period in ticks (Tick)
system.cpu.numCycles                       4166215716                       # Number of cpu cycles simulated (Cycle)
system.cpu.cpi                               2.694854                       # CPI: cycles per instruction (core level) ((Cycle/Count))
system.cpu.ipc                               0.371078                       # IPC: instructions per cycle (core level) ((Count/Cycle))
system.cpu.numWorkItemsStarted                      0                       # Number of work items this cpu started (Count)
system.cpu.numWorkItemsCompleted                    0                       # Number of work items this cpu completed (Count)
system.cpu.instsAdded                      3793803021                       # Number of instructions added to the IQ (excludes non-spec) (Count)
system.cpu.nonSpecInstsAdded                 73905394                       # Number of non-speculative instructions added to the IQ (Count)
system.cpu.instsIssued                     3173008317                       # Number of instructions issued (Count)
system.cpu.squashedInstsIssued                9271161                       # Number of squashed instructions issued (Count)
system.cpu.squashedInstsExamined           1255050933                       # Number of squashed instructions iterated over during squash; mainly for profiling (Count)
system.cpu.squashedOperandsExamined        3200921643                       # Number of squashed operands that are examined and possibly removed from graph (Count)
system.cpu.squashedNonSpecRemoved            41018278                       # Number of squashed non-spec instructions that were removed (Count)
system.cpu.numIssuedDist::samples          4166097963                       # Number of insts issued each cycle (Count)
system.cpu.numIssuedDist::mean               0.761626                       # Number of insts issued each cycle (Count)
system.cpu.numIssuedDist::stdev              1.368352                       # Number of insts issued each cycle (Count)
system.cpu.numIssuedDist::underflows                0      0.00%      0.00% # Number of insts issued each cycle (Count)
system.cpu.numIssuedDist::0                2894851634     69.49%     69.49% # Number of insts issued each cycle (Count)
system.cpu.numIssuedDist::1                 333310541      8.00%     77.49% # Number of insts issued each cycle (Count)
system.cpu.numIssuedDist::2                 382111398      9.17%     86.66% # Number of insts issued each cycle (Count)
system.cpu.numIssuedDist::3                 303718781      7.29%     93.95% # Number of insts issued each cycle (Count)
system.cpu.numIssuedDist::4                 160130132      3.84%     97.79% # Number of insts issued each cycle (Count)
system.cpu.numIssuedDist::5                  52656595      1.26%     99.06% # Number of insts issued each cycle (Count)
system.cpu.numIssuedDist::6                  18798741      0.45%     99.51% # Number of insts issued each cycle (Count)
system.cpu.numIssuedDist::7                  16438440      0.39%     99.90% # Number of insts issued each cycle (Count)
system.cpu.numIssuedDist::8                   4081701      0.10%    100.00% # Number of insts issued each cycle (Count)
system.cpu.numIssuedDist::overflows                 0      0.00%    100.00% # Number of insts issued each cycle (Count)
system.cpu.numIssuedDist::min_value                 0                       # Number of insts issued each cycle (Count)
system.cpu.numIssuedDist::max_value                 8                       # Number of insts issued each cycle (Count)
system.cpu.numIssuedDist::total            4166097963                       # Number of insts issued each cycle (Count)
system.cpu.statFuBusy::No_OpClass                   0      0.00%      0.00% # attempts to use FU when none available (Count)
system.cpu.statFuBusy::IntAlu                 5875514     29.85%     29.85% # attempts to use FU when none available (Count)
system.cpu.statFuBusy::IntMult                      0      0.00%     29.85% # attempts to use FU when none available (Count)
system.cpu.statFuBusy::IntDiv                       0      0.00%     29.85% # attempts to use FU when none available (Count)
system.cpu.statFuBusy::FloatAdd                     0      0.00%     29.85% # attempts to use FU when none available (Count)
system.cpu.statFuBusy::FloatCmp                     0      0.00%     29.85% # attempts to use FU when none available (Count)
system.cpu.statFuBusy::FloatCvt                     0      0.00%     29.85% # attempts to use FU when none available (Count)
system.cpu.statFuBusy::FloatMult                    0      0.00%     29.85% # attempts to use FU when none available (Count)
system.cpu.statFuBusy::FloatMultAcc                 0      0.00%     29.85% # attempts to use FU when none available (Count)
system.cpu.statFuBusy::FloatDiv                     0      0.00%     29.85% # attempts to use FU when none available (Count)
system.cpu.statFuBusy::FloatMisc                    0      0.00%     29.85% # attempts to use FU when none available (Count)
system.cpu.statFuBusy::FloatSqrt                    0      0.00%     29.85% # attempts to use FU when none available (Count)
system.cpu.statFuBusy::SimdAdd                      0      0.00%     29.85% # attempts to use FU when none available (Count)
system.cpu.statFuBusy::SimdAddAcc                   0      0.00%     29.85% # attempts to use FU when none available (Count)
system.cpu.statFuBusy::SimdAlu                     57      0.00%     29.85% # attempts to use FU when none available (Count)
system.cpu.statFuBusy::SimdCmp                      0      0.00%     29.85% # attempts to use FU when none available (Count)
system.cpu.statFuBusy::SimdCvt                     89      0.00%     29.85% # attempts to use FU when none available (Count)
system.cpu.statFuBusy::SimdMisc                     3      0.00%     29.85% # attempts to use FU when none available (Count)
system.cpu.statFuBusy::SimdMult                     0      0.00%     29.85% # attempts to use FU when none available (Count)
system.cpu.statFuBusy::SimdMultAcc                  0      0.00%     29.85% # attempts to use FU when none available (Count)
system.cpu.statFuBusy::SimdMatMultAcc               0      0.00%     29.85% # attempts to use FU when none available (Count)
system.cpu.statFuBusy::SimdShift                   21      0.00%     29.85% # attempts to use FU when none available (Count)
system.cpu.statFuBusy::SimdShiftAcc                 0      0.00%     29.85% # attempts to use FU when none available (Count)
system.cpu.statFuBusy::SimdDiv                      0      0.00%     29.85% # attempts to use FU when none available (Count)
system.cpu.statFuBusy::SimdSqrt                     0      0.00%     29.85% # attempts to use FU when none available (Count)
system.cpu.statFuBusy::SimdFloatAdd                 0      0.00%     29.85% # attempts to use FU when none available (Count)
system.cpu.statFuBusy::SimdFloatAlu                 0      0.00%     29.85% # attempts to use FU when none available (Count)
system.cpu.statFuBusy::SimdFloatCmp                 0      0.00%     29.85% # attempts to use FU when none available (Count)
system.cpu.statFuBusy::SimdFloatCvt                 0      0.00%     29.85% # attempts to use FU when none available (Count)
system.cpu.statFuBusy::SimdFloatDiv                 0      0.00%     29.85% # attempts to use FU when none available (Count)
system.cpu.statFuBusy::SimdFloatMisc                0      0.00%     29.85% # attempts to use FU when none available (Count)
system.cpu.statFuBusy::SimdFloatMult                0      0.00%     29.85% # attempts to use FU when none available (Count)
system.cpu.statFuBusy::SimdFloatMultAcc             0      0.00%     29.85% # attempts to use FU when none available (Count)
system.cpu.statFuBusy::SimdFloatMatMultAcc            0      0.00%     29.85% # attempts to use FU when none available (Count)
system.cpu.statFuBusy::SimdFloatSqrt                0      0.00%     29.85% # attempts to use FU when none available (Count)
system.cpu.statFuBusy::SimdReduceAdd                0      0.00%     29.85% # attempts to use FU when none available (Count)
system.cpu.statFuBusy::SimdReduceAlu                0      0.00%     29.85% # attempts to use FU when none available (Count)
system.cpu.statFuBusy::SimdReduceCmp                0      0.00%     29.85% # attempts to use FU when none available (Count)
system.cpu.statFuBusy::SimdFloatReduceAdd            0      0.00%     29.85% # attempts to use FU when none available (Count)
system.cpu.statFuBusy::SimdFloatReduceCmp            0      0.00%     29.85% # attempts to use FU when none available (Count)
system.cpu.statFuBusy::SimdAes                      0      0.00%     29.85% # attempts to use FU when none available (Count)
system.cpu.statFuBusy::SimdAesMix                   0      0.00%     29.85% # attempts to use FU when none available (Count)
system.cpu.statFuBusy::SimdSha1Hash                 0      0.00%     29.85% # attempts to use FU when none available (Count)
system.cpu.statFuBusy::SimdSha1Hash2                0      0.00%     29.85% # attempts to use FU when none available (Count)
system.cpu.statFuBusy::SimdSha256Hash               0      0.00%     29.85% # attempts to use FU when none available (Count)
system.cpu.statFuBusy::SimdSha256Hash2              0      0.00%     29.85% # attempts to use FU when none available (Count)
system.cpu.statFuBusy::SimdShaSigma2                0      0.00%     29.85% # attempts to use FU when none available (Count)
system.cpu.statFuBusy::SimdShaSigma3                0      0.00%     29.85% # attempts to use FU when none available (Count)
system.cpu.statFuBusy::SimdPredAlu                  0      0.00%     29.85% # attempts to use FU when none available (Count)
system.cpu.statFuBusy::Matrix                       0      0.00%     29.85% # attempts to use FU when none available (Count)
system.cpu.statFuBusy::MatrixMov                    0      0.00%     29.85% # attempts to use FU when none available (Count)
system.cpu.statFuBusy::MatrixOP                     0      0.00%     29.85% # attempts to use FU when none available (Count)
system.cpu.statFuBusy::MemRead               13810201     70.15%    100.00% # attempts to use FU when none available (Count)
system.cpu.statFuBusy::MemWrite                   406      0.00%    100.00% # attempts to use FU when none available (Count)
system.cpu.statFuBusy::FloatMemRead                18      0.00%    100.00% # attempts to use FU when none available (Count)
system.cpu.statFuBusy::FloatMemWrite               85      0.00%    100.00% # attempts to use FU when none available (Count)
system.cpu.statFuBusy::IprAccess                    0      0.00%    100.00% # attempts to use FU when none available (Count)
system.cpu.statFuBusy::InstPrefetch                 0      0.00%    100.00% # attempts to use FU when none available (Count)
system.cpu.statFuBusy::VectorUnitStrideLoad            0      0.00%    100.00% # attempts to use FU when none available (Count)
system.cpu.statFuBusy::VectorUnitStrideStore            0      0.00%    100.00% # attempts to use FU when none available (Count)
system.cpu.statFuBusy::VectorUnitStrideMaskLoad            0      0.00%    100.00% # attempts to use FU when none available (Count)
system.cpu.statFuBusy::VectorUnitStrideMaskStore            0      0.00%    100.00% # attempts to use FU when none available (Count)
system.cpu.statFuBusy::VectorStridedLoad            0      0.00%    100.00% # attempts to use FU when none available (Count)
system.cpu.statFuBusy::VectorStridedStore            0      0.00%    100.00% # attempts to use FU when none available (Count)
system.cpu.statFuBusy::VectorIndexedLoad            0      0.00%    100.00% # attempts to use FU when none available (Count)
system.cpu.statFuBusy::VectorIndexedStore            0      0.00%    100.00% # attempts to use FU when none available (Count)
system.cpu.statFuBusy::VectorUnitStrideFaultOnlyFirstLoad            0      0.00%    100.00% # attempts to use FU when none available (Count)
system.cpu.statFuBusy::VectorWholeRegisterLoad            0      0.00%    100.00% # attempts to use FU when none available (Count)
system.cpu.statFuBusy::VectorWholeRegisterStore            0      0.00%    100.00% # attempts to use FU when none available (Count)
system.cpu.statFuBusy::VectorIntegerArith            0      0.00%    100.00% # attempts to use FU when none available (Count)
system.cpu.statFuBusy::VectorFloatArith             0      0.00%    100.00% # attempts to use FU when none available (Count)
system.cpu.statFuBusy::VectorFloatConvert            0      0.00%    100.00% # attempts to use FU when none available (Count)
system.cpu.statFuBusy::VectorIntegerReduce            0      0.00%    100.00% # attempts to use FU when none available (Count)
system.cpu.statFuBusy::VectorFloatReduce            0      0.00%    100.00% # attempts to use FU when none available (Count)
system.cpu.statFuBusy::VectorMisc                   0      0.00%    100.00% # attempts to use FU when none available (Count)
system.cpu.statFuBusy::VectorIntegerExtension            0      0.00%    100.00% # attempts to use FU when none available (Count)
system.cpu.statFuBusy::VectorConfig                 0      0.00%    100.00% # attempts to use FU when none available (Count)
system.cpu.statIssuedInstType_0::No_OpClass      1216597      0.04%      0.04% # Number of instructions issued per FU type, per thread (Count)
system.cpu.statIssuedInstType_0::IntAlu    2331123628     73.47%     73.51% # Number of instructions issued per FU type, per thread (Count)
system.cpu.statIssuedInstType_0::IntMult     11462750      0.36%     73.87% # Number of instructions issued per FU type, per thread (Count)
system.cpu.statIssuedInstType_0::IntDiv        561101      0.02%     73.88% # Number of instructions issued per FU type, per thread (Count)
system.cpu.statIssuedInstType_0::FloatAdd         1544      0.00%     73.88% # Number of instructions issued per FU type, per thread (Count)
system.cpu.statIssuedInstType_0::FloatCmp            0      0.00%     73.88% # Number of instructions issued per FU type, per thread (Count)
system.cpu.statIssuedInstType_0::FloatCvt            0      0.00%     73.88% # Number of instructions issued per FU type, per thread (Count)
system.cpu.statIssuedInstType_0::FloatMult            0      0.00%     73.88% # Number of instructions issued per FU type, per thread (Count)
system.cpu.statIssuedInstType_0::FloatMultAcc            0      0.00%     73.88% # Number of instructions issued per FU type, per thread (Count)
system.cpu.statIssuedInstType_0::FloatDiv            0      0.00%     73.88% # Number of instructions issued per FU type, per thread (Count)
system.cpu.statIssuedInstType_0::FloatMisc            0      0.00%     73.88% # Number of instructions issued per FU type, per thread (Count)
system.cpu.statIssuedInstType_0::FloatSqrt            0      0.00%     73.88% # Number of instructions issued per FU type, per thread (Count)
system.cpu.statIssuedInstType_0::SimdAdd          592      0.00%     73.88% # Number of instructions issued per FU type, per thread (Count)
system.cpu.statIssuedInstType_0::SimdAddAcc            0      0.00%     73.88% # Number of instructions issued per FU type, per thread (Count)
system.cpu.statIssuedInstType_0::SimdAlu         3725      0.00%     73.88% # Number of instructions issued per FU type, per thread (Count)
system.cpu.statIssuedInstType_0::SimdCmp            0      0.00%     73.88% # Number of instructions issued per FU type, per thread (Count)
system.cpu.statIssuedInstType_0::SimdCvt         3470      0.00%     73.88% # Number of instructions issued per FU type, per thread (Count)
system.cpu.statIssuedInstType_0::SimdMisc         4956      0.00%     73.89% # Number of instructions issued per FU type, per thread (Count)
system.cpu.statIssuedInstType_0::SimdMult            0      0.00%     73.89% # Number of instructions issued per FU type, per thread (Count)
system.cpu.statIssuedInstType_0::SimdMultAcc            0      0.00%     73.89% # Number of instructions issued per FU type, per thread (Count)
system.cpu.statIssuedInstType_0::SimdMatMultAcc            0      0.00%     73.89% # Number of instructions issued per FU type, per thread (Count)
system.cpu.statIssuedInstType_0::SimdShift          768      0.00%     73.89% # Number of instructions issued per FU type, per thread (Count)
system.cpu.statIssuedInstType_0::SimdShiftAcc            0      0.00%     73.89% # Number of instructions issued per FU type, per thread (Count)
system.cpu.statIssuedInstType_0::SimdDiv            0      0.00%     73.89% # Number of instructions issued per FU type, per thread (Count)
system.cpu.statIssuedInstType_0::SimdSqrt            0      0.00%     73.89% # Number of instructions issued per FU type, per thread (Count)
system.cpu.statIssuedInstType_0::SimdFloatAdd            0      0.00%     73.89% # Number of instructions issued per FU type, per thread (Count)
system.cpu.statIssuedInstType_0::SimdFloatAlu            0      0.00%     73.89% # Number of instructions issued per FU type, per thread (Count)
system.cpu.statIssuedInstType_0::SimdFloatCmp            0      0.00%     73.89% # Number of instructions issued per FU type, per thread (Count)
system.cpu.statIssuedInstType_0::SimdFloatCvt            0      0.00%     73.89% # Number of instructions issued per FU type, per thread (Count)
system.cpu.statIssuedInstType_0::SimdFloatDiv            0      0.00%     73.89% # Number of instructions issued per FU type, per thread (Count)
system.cpu.statIssuedInstType_0::SimdFloatMisc            0      0.00%     73.89% # Number of instructions issued per FU type, per thread (Count)
system.cpu.statIssuedInstType_0::SimdFloatMult            0      0.00%     73.89% # Number of instructions issued per FU type, per thread (Count)
system.cpu.statIssuedInstType_0::SimdFloatMultAcc            0      0.00%     73.89% # Number of instructions issued per FU type, per thread (Count)
system.cpu.statIssuedInstType_0::SimdFloatMatMultAcc            0      0.00%     73.89% # Number of instructions issued per FU type, per thread (Count)
system.cpu.statIssuedInstType_0::SimdFloatSqrt            0      0.00%     73.89% # Number of instructions issued per FU type, per thread (Count)
system.cpu.statIssuedInstType_0::SimdReduceAdd            0      0.00%     73.89% # Number of instructions issued per FU type, per thread (Count)
system.cpu.statIssuedInstType_0::SimdReduceAlu            0      0.00%     73.89% # Number of instructions issued per FU type, per thread (Count)
system.cpu.statIssuedInstType_0::SimdReduceCmp            0      0.00%     73.89% # Number of instructions issued per FU type, per thread (Count)
system.cpu.statIssuedInstType_0::SimdFloatReduceAdd            0      0.00%     73.89% # Number of instructions issued per FU type, per thread (Count)
system.cpu.statIssuedInstType_0::SimdFloatReduceCmp            0      0.00%     73.89% # Number of instructions issued per FU type, per thread (Count)
system.cpu.statIssuedInstType_0::SimdAes            0      0.00%     73.89% # Number of instructions issued per FU type, per thread (Count)
system.cpu.statIssuedInstType_0::SimdAesMix            0      0.00%     73.89% # Number of instructions issued per FU type, per thread (Count)
system.cpu.statIssuedInstType_0::SimdSha1Hash            0      0.00%     73.89% # Number of instructions issued per FU type, per thread (Count)
system.cpu.statIssuedInstType_0::SimdSha1Hash2            0      0.00%     73.89% # Number of instructions issued per FU type, per thread (Count)
system.cpu.statIssuedInstType_0::SimdSha256Hash            0      0.00%     73.89% # Number of instructions issued per FU type, per thread (Count)
system.cpu.statIssuedInstType_0::SimdSha256Hash2            0      0.00%     73.89% # Number of instructions issued per FU type, per thread (Count)
system.cpu.statIssuedInstType_0::SimdShaSigma2            0      0.00%     73.89% # Number of instructions issued per FU type, per thread (Count)
system.cpu.statIssuedInstType_0::SimdShaSigma3            0      0.00%     73.89% # Number of instructions issued per FU type, per thread (Count)
system.cpu.statIssuedInstType_0::SimdPredAlu            0      0.00%     73.89% # Number of instructions issued per FU type, per thread (Count)
system.cpu.statIssuedInstType_0::Matrix             0      0.00%     73.89% # Number of instructions issued per FU type, per thread (Count)
system.cpu.statIssuedInstType_0::MatrixMov            0      0.00%     73.89% # Number of instructions issued per FU type, per thread (Count)
system.cpu.statIssuedInstType_0::MatrixOP            0      0.00%     73.89% # Number of instructions issued per FU type, per thread (Count)
system.cpu.statIssuedInstType_0::MemRead    535550757     16.88%     90.76% # Number of instructions issued per FU type, per thread (Count)
system.cpu.statIssuedInstType_0::MemWrite    293069962      9.24%    100.00% # Number of instructions issued per FU type, per thread (Count)
system.cpu.statIssuedInstType_0::FloatMemRead         4694      0.00%    100.00% # Number of instructions issued per FU type, per thread (Count)
system.cpu.statIssuedInstType_0::FloatMemWrite         3773      0.00%    100.00% # Number of instructions issued per FU type, per thread (Count)
system.cpu.statIssuedInstType_0::IprAccess            0      0.00%    100.00% # Number of instructions issued per FU type, per thread (Count)
system.cpu.statIssuedInstType_0::InstPrefetch            0      0.00%    100.00% # Number of instructions issued per FU type, per thread (Count)
system.cpu.statIssuedInstType_0::VectorUnitStrideLoad            0      0.00%    100.00% # Number of instructions issued per FU type, per thread (Count)
system.cpu.statIssuedInstType_0::VectorUnitStrideStore            0      0.00%    100.00% # Number of instructions issued per FU type, per thread (Count)
system.cpu.statIssuedInstType_0::VectorUnitStrideMaskLoad            0      0.00%    100.00% # Number of instructions issued per FU type, per thread (Count)
system.cpu.statIssuedInstType_0::VectorUnitStrideMaskStore            0      0.00%    100.00% # Number of instructions issued per FU type, per thread (Count)
system.cpu.statIssuedInstType_0::VectorStridedLoad            0      0.00%    100.00% # Number of instructions issued per FU type, per thread (Count)
system.cpu.statIssuedInstType_0::VectorStridedStore            0      0.00%    100.00% # Number of instructions issued per FU type, per thread (Count)
system.cpu.statIssuedInstType_0::VectorIndexedLoad            0      0.00%    100.00% # Number of instructions issued per FU type, per thread (Count)
system.cpu.statIssuedInstType_0::VectorIndexedStore            0      0.00%    100.00% # Number of instructions issued per FU type, per thread (Count)
system.cpu.statIssuedInstType_0::VectorUnitStrideFaultOnlyFirstLoad            0      0.00%    100.00% # Number of instructions issued per FU type, per thread (Count)
system.cpu.statIssuedInstType_0::VectorWholeRegisterLoad            0      0.00%    100.00% # Number of instructions issued per FU type, per thread (Count)
system.cpu.statIssuedInstType_0::VectorWholeRegisterStore            0      0.00%    100.00% # Number of instructions issued per FU type, per thread (Count)
system.cpu.statIssuedInstType_0::VectorIntegerArith            0      0.00%    100.00% # Number of instructions issued per FU type, per thread (Count)
system.cpu.statIssuedInstType_0::VectorFloatArith            0      0.00%    100.00% # Number of instructions issued per FU type, per thread (Count)
system.cpu.statIssuedInstType_0::VectorFloatConvert            0      0.00%    100.00% # Number of instructions issued per FU type, per thread (Count)
system.cpu.statIssuedInstType_0::VectorIntegerReduce            0      0.00%    100.00% # Number of instructions issued per FU type, per thread (Count)
system.cpu.statIssuedInstType_0::VectorFloatReduce            0      0.00%    100.00% # Number of instructions issued per FU type, per thread (Count)
system.cpu.statIssuedInstType_0::VectorMisc            0      0.00%    100.00% # Number of instructions issued per FU type, per thread (Count)
system.cpu.statIssuedInstType_0::VectorIntegerExtension            0      0.00%    100.00% # Number of instructions issued per FU type, per thread (Count)
system.cpu.statIssuedInstType_0::VectorConfig            0      0.00%    100.00% # Number of instructions issued per FU type, per thread (Count)
system.cpu.statIssuedInstType_0::total     3173008317                       # Number of instructions issued per FU type, per thread (Count)
system.cpu.issueRate                         0.761604                       # Inst issue rate ((Count/Cycle))
system.cpu.fuBusy                            19686394                       # FU busy when requested (Count)
system.cpu.fuBusyRate                        0.006204                       # FU busy rate (busy events/executed inst) ((Count/Count))
system.cpu.intInstQueueReads              10541020471                       # Number of integer instruction queue reads (Count)
system.cpu.intInstQueueWrites              5137931163                       # Number of integer instruction queue writes (Count)
system.cpu.intInstQueueWakeupAccesses      3154228115                       # Number of integer instruction queue wakeup accesses (Count)
system.cpu.fpInstQueueReads                     51681                       # Number of floating instruction queue reads (Count)
system.cpu.fpInstQueueWrites                    36775                       # Number of floating instruction queue writes (Count)
system.cpu.fpInstQueueWakeupAccesses            24722                       # Number of floating instruction queue wakeup accesses (Count)
system.cpu.vecInstQueueReads                        0                       # Number of vector instruction queue reads (Count)
system.cpu.vecInstQueueWrites                       0                       # Number of vector instruction queue writes (Count)
system.cpu.vecInstQueueWakeupAccesses               0                       # Number of vector instruction queue wakeup accesses (Count)
system.cpu.intAluAccesses                  3191452171                       # Number of integer alu accesses (Count)
system.cpu.fpAluAccesses                        25943                       # Number of floating point alu accesses (Count)
system.cpu.vecAluAccesses                           0                       # Number of vector alu accesses (Count)
system.cpu.numSquashedInsts                   8835617                       # Number of squashed instructions skipped in execute (Count)
system.cpu.numSwp                                   0                       # Number of swp insts executed (Count)
system.cpu.timesIdled                            1097                       # Number of times that the entire CPU went into an idle state and unscheduled itself (Count)
system.cpu.idleCycles                          117753                       # Total number of cycles that the CPU has spent unscheduled due to idling (Cycle)
system.cpu.MemDepUnit__0.insertedLoads      722525517                       # Number of loads inserted to the mem dependence unit. (Count)
system.cpu.MemDepUnit__0.insertedStores     431833224                       # Number of stores inserted to the mem dependence unit. (Count)
system.cpu.MemDepUnit__0.conflictingLoads    653938967                       # Number of conflicting loads. (Count)
system.cpu.MemDepUnit__0.conflictingStores    352572961                       # Number of conflicting stores. (Count)
system.cpu.MemDepUnit__1.insertedLoads              0                       # Number of loads inserted to the mem dependence unit. (Count)
system.cpu.MemDepUnit__1.insertedStores             0                       # Number of stores inserted to the mem dependence unit. (Count)
system.cpu.MemDepUnit__1.conflictingLoads            0                       # Number of conflicting loads. (Count)
system.cpu.MemDepUnit__1.conflictingStores            0                       # Number of conflicting stores. (Count)
system.cpu.MemDepUnit__2.insertedLoads              0                       # Number of loads inserted to the mem dependence unit. (Count)
system.cpu.MemDepUnit__2.insertedStores             0                       # Number of stores inserted to the mem dependence unit. (Count)
system.cpu.MemDepUnit__2.conflictingLoads            0                       # Number of conflicting loads. (Count)
system.cpu.MemDepUnit__2.conflictingStores            0                       # Number of conflicting stores. (Count)
system.cpu.MemDepUnit__3.insertedLoads              0                       # Number of loads inserted to the mem dependence unit. (Count)
system.cpu.MemDepUnit__3.insertedStores             0                       # Number of stores inserted to the mem dependence unit. (Count)
system.cpu.MemDepUnit__3.conflictingLoads            0                       # Number of conflicting loads. (Count)
system.cpu.MemDepUnit__3.conflictingStores            0                       # Number of conflicting stores. (Count)
system.cpu.branchPred.lookups               313420816                       # Number of BP lookups (Count)
system.cpu.branchPred.condPredicted         299206917                       # Number of conditional branches predicted (Count)
system.cpu.branchPred.condIncorrect           1403388                       # Number of conditional branches incorrect (Count)
system.cpu.branchPred.BTBLookups            290385100                       # Number of BTB lookups (Count)
system.cpu.branchPred.BTBUpdates                 3449                       # Number of BTB updates (Count)
system.cpu.branchPred.BTBHits               290382549                       # Number of BTB hits (Count)
system.cpu.branchPred.BTBHitRatio            0.999991                       # BTB Hit Ratio (Ratio)
system.cpu.branchPred.RASUsed                 1212490                       # Number of times the RAS was used to get a target. (Count)
system.cpu.branchPred.RASIncorrect                  2                       # Number of incorrect RAS predictions. (Count)
system.cpu.branchPred.indirectLookups            3355                       # Number of indirect predictor lookups. (Count)
system.cpu.branchPred.indirectHits               2018                       # Number of indirect target hits. (Count)
system.cpu.branchPred.indirectMisses             1337                       # Number of indirect misses. (Count)
system.cpu.branchPred.indirectMispredicted          463                       # Number of mispredicted indirect branches. (Count)
system.cpu.commit.commitSquashedInsts      1255047470                       # The number of squashed insts skipped by commit (Count)
system.cpu.commit.commitNonSpecStalls        32887116                       # The number of times commit has been forced to stall to communicate backwards (Count)
system.cpu.commit.branchMispredicts           1402530                       # The number of times a branch was mispredicted (Count)
system.cpu.commit.numCommittedDist::samples   4003335293                       # Number of insts commited each cycle (Count)
system.cpu.commit.numCommittedDist::mean     0.652620                       # Number of insts commited each cycle (Count)
system.cpu.commit.numCommittedDist::stdev     1.471075                       # Number of insts commited each cycle (Count)
system.cpu.commit.numCommittedDist::underflows            0      0.00%      0.00% # Number of insts commited each cycle (Count)
system.cpu.commit.numCommittedDist::0      3051783177     76.23%     76.23% # Number of insts commited each cycle (Count)
system.cpu.commit.numCommittedDist::1       318624858      7.96%     84.19% # Number of insts commited each cycle (Count)
system.cpu.commit.numCommittedDist::2       179563332      4.49%     88.68% # Number of insts commited each cycle (Count)
system.cpu.commit.numCommittedDist::3       230025329      5.75%     94.42% # Number of insts commited each cycle (Count)
system.cpu.commit.numCommittedDist::4        19693519      0.49%     94.91% # Number of insts commited each cycle (Count)
system.cpu.commit.numCommittedDist::5       133095840      3.32%     98.24% # Number of insts commited each cycle (Count)
system.cpu.commit.numCommittedDist::6        30521191      0.76%     99.00% # Number of insts commited each cycle (Count)
system.cpu.commit.numCommittedDist::7         2774831      0.07%     99.07% # Number of insts commited each cycle (Count)
system.cpu.commit.numCommittedDist::8        37253216      0.93%    100.00% # Number of insts commited each cycle (Count)
system.cpu.commit.numCommittedDist::overflows            0      0.00%    100.00% # Number of insts commited each cycle (Count)
system.cpu.commit.numCommittedDist::min_value            0                       # Number of insts commited each cycle (Count)
system.cpu.commit.numCommittedDist::max_value            8                       # Number of insts commited each cycle (Count)
system.cpu.commit.numCommittedDist::total   4003335293                       # Number of insts commited each cycle (Count)
system.cpu.commit.amos                              0                       # Number of atomic instructions committed (Count)
system.cpu.commit.membars                    31888104                       # Number of memory barriers committed (Count)
system.cpu.commit.functionCalls               1202458                       # Number of function calls committed. (Count)
system.cpu.commit.committedInstType_0::No_OpClass      1205072      0.05%      0.05% # Class of committed instruction (Count)
system.cpu.commit.committedInstType_0::IntAlu   1843884362     70.58%     70.62% # Class of committed instruction (Count)
system.cpu.commit.committedInstType_0::IntMult     11429314      0.44%     71.06% # Class of committed instruction (Count)
system.cpu.commit.committedInstType_0::IntDiv       560969      0.02%     71.08% # Class of committed instruction (Count)
system.cpu.commit.committedInstType_0::FloatAdd         1165      0.00%     71.08% # Class of committed instruction (Count)
system.cpu.commit.committedInstType_0::FloatCmp            0      0.00%     71.08% # Class of committed instruction (Count)
system.cpu.commit.committedInstType_0::FloatCvt            0      0.00%     71.08% # Class of committed instruction (Count)
system.cpu.commit.committedInstType_0::FloatMult            0      0.00%     71.08% # Class of committed instruction (Count)
system.cpu.commit.committedInstType_0::FloatMultAcc            0      0.00%     71.08% # Class of committed instruction (Count)
system.cpu.commit.committedInstType_0::FloatDiv            0      0.00%     71.08% # Class of committed instruction (Count)
system.cpu.commit.committedInstType_0::FloatMisc            0      0.00%     71.08% # Class of committed instruction (Count)
system.cpu.commit.committedInstType_0::FloatSqrt            0      0.00%     71.08% # Class of committed instruction (Count)
system.cpu.commit.committedInstType_0::SimdAdd          428      0.00%     71.08% # Class of committed instruction (Count)
system.cpu.commit.committedInstType_0::SimdAddAcc            0      0.00%     71.08% # Class of committed instruction (Count)
system.cpu.commit.committedInstType_0::SimdAlu         2840      0.00%     71.08% # Class of committed instruction (Count)
system.cpu.commit.committedInstType_0::SimdCmp            0      0.00%     71.08% # Class of committed instruction (Count)
system.cpu.commit.committedInstType_0::SimdCvt         2878      0.00%     71.08% # Class of committed instruction (Count)
system.cpu.commit.committedInstType_0::SimdMisc         4728      0.00%     71.08% # Class of committed instruction (Count)
system.cpu.commit.committedInstType_0::SimdMult            0      0.00%     71.08% # Class of committed instruction (Count)
system.cpu.commit.committedInstType_0::SimdMultAcc            0      0.00%     71.08% # Class of committed instruction (Count)
system.cpu.commit.committedInstType_0::SimdMatMultAcc            0      0.00%     71.08% # Class of committed instruction (Count)
system.cpu.commit.committedInstType_0::SimdShift          267      0.00%     71.08% # Class of committed instruction (Count)
system.cpu.commit.committedInstType_0::SimdShiftAcc            0      0.00%     71.08% # Class of committed instruction (Count)
system.cpu.commit.committedInstType_0::SimdDiv            0      0.00%     71.08% # Class of committed instruction (Count)
system.cpu.commit.committedInstType_0::SimdSqrt            0      0.00%     71.08% # Class of committed instruction (Count)
system.cpu.commit.committedInstType_0::SimdFloatAdd            0      0.00%     71.08% # Class of committed instruction (Count)
system.cpu.commit.committedInstType_0::SimdFloatAlu            0      0.00%     71.08% # Class of committed instruction (Count)
system.cpu.commit.committedInstType_0::SimdFloatCmp            0      0.00%     71.08% # Class of committed instruction (Count)
system.cpu.commit.committedInstType_0::SimdFloatCvt            0      0.00%     71.08% # Class of committed instruction (Count)
system.cpu.commit.committedInstType_0::SimdFloatDiv            0      0.00%     71.08% # Class of committed instruction (Count)
system.cpu.commit.committedInstType_0::SimdFloatMisc            0      0.00%     71.08% # Class of committed instruction (Count)
system.cpu.commit.committedInstType_0::SimdFloatMult            0      0.00%     71.08% # Class of committed instruction (Count)
system.cpu.commit.committedInstType_0::SimdFloatMultAcc            0      0.00%     71.08% # Class of committed instruction (Count)
system.cpu.commit.committedInstType_0::SimdFloatMatMultAcc            0      0.00%     71.08% # Class of committed instruction (Count)
system.cpu.commit.committedInstType_0::SimdFloatSqrt            0      0.00%     71.08% # Class of committed instruction (Count)
system.cpu.commit.committedInstType_0::SimdReduceAdd            0      0.00%     71.08% # Class of committed instruction (Count)
system.cpu.commit.committedInstType_0::SimdReduceAlu            0      0.00%     71.08% # Class of committed instruction (Count)
system.cpu.commit.committedInstType_0::SimdReduceCmp            0      0.00%     71.08% # Class of committed instruction (Count)
system.cpu.commit.committedInstType_0::SimdFloatReduceAdd            0      0.00%     71.08% # Class of committed instruction (Count)
system.cpu.commit.committedInstType_0::SimdFloatReduceCmp            0      0.00%     71.08% # Class of committed instruction (Count)
system.cpu.commit.committedInstType_0::SimdAes            0      0.00%     71.08% # Class of committed instruction (Count)
system.cpu.commit.committedInstType_0::SimdAesMix            0      0.00%     71.08% # Class of committed instruction (Count)
system.cpu.commit.committedInstType_0::SimdSha1Hash            0      0.00%     71.08% # Class of committed instruction (Count)
system.cpu.commit.committedInstType_0::SimdSha1Hash2            0      0.00%     71.08% # Class of committed instruction (Count)
system.cpu.commit.committedInstType_0::SimdSha256Hash            0      0.00%     71.08% # Class of committed instruction (Count)
system.cpu.commit.committedInstType_0::SimdSha256Hash2            0      0.00%     71.08% # Class of committed instruction (Count)
system.cpu.commit.committedInstType_0::SimdShaSigma2            0      0.00%     71.08% # Class of committed instruction (Count)
system.cpu.commit.committedInstType_0::SimdShaSigma3            0      0.00%     71.08% # Class of committed instruction (Count)
system.cpu.commit.committedInstType_0::SimdPredAlu            0      0.00%     71.08% # Class of committed instruction (Count)
system.cpu.commit.committedInstType_0::Matrix            0      0.00%     71.08% # Class of committed instruction (Count)
system.cpu.commit.committedInstType_0::MatrixMov            0      0.00%     71.08% # Class of committed instruction (Count)
system.cpu.commit.committedInstType_0::MatrixOP            0      0.00%     71.08% # Class of committed instruction (Count)
system.cpu.commit.committedInstType_0::MemRead    478840861     18.33%     89.41% # Class of committed instruction (Count)
system.cpu.commit.committedInstType_0::MemWrite    276718172     10.59%    100.00% # Class of committed instruction (Count)
system.cpu.commit.committedInstType_0::FloatMemRead         3191      0.00%    100.00% # Class of committed instruction (Count)
system.cpu.commit.committedInstType_0::FloatMemWrite         3229      0.00%    100.00% # Class of committed instruction (Count)
system.cpu.commit.committedInstType_0::IprAccess            0      0.00%    100.00% # Class of committed instruction (Count)
system.cpu.commit.committedInstType_0::InstPrefetch            0      0.00%    100.00% # Class of committed instruction (Count)
system.cpu.commit.committedInstType_0::VectorUnitStrideLoad            0      0.00%    100.00% # Class of committed instruction (Count)
system.cpu.commit.committedInstType_0::VectorUnitStrideStore            0      0.00%    100.00% # Class of committed instruction (Count)
system.cpu.commit.committedInstType_0::VectorUnitStrideMaskLoad            0      0.00%    100.00% # Class of committed instruction (Count)
system.cpu.commit.committedInstType_0::VectorUnitStrideMaskStore            0      0.00%    100.00% # Class of committed instruction (Count)
system.cpu.commit.committedInstType_0::VectorStridedLoad            0      0.00%    100.00% # Class of committed instruction (Count)
system.cpu.commit.committedInstType_0::VectorStridedStore            0      0.00%    100.00% # Class of committed instruction (Count)
system.cpu.commit.committedInstType_0::VectorIndexedLoad            0      0.00%    100.00% # Class of committed instruction (Count)
system.cpu.commit.committedInstType_0::VectorIndexedStore            0      0.00%    100.00% # Class of committed instruction (Count)
system.cpu.commit.committedInstType_0::VectorUnitStrideFaultOnlyFirstLoad            0      0.00%    100.00% # Class of committed instruction (Count)
system.cpu.commit.committedInstType_0::VectorWholeRegisterLoad            0      0.00%    100.00% # Class of committed instruction (Count)
system.cpu.commit.committedInstType_0::VectorWholeRegisterStore            0      0.00%    100.00% # Class of committed instruction (Count)
system.cpu.commit.committedInstType_0::VectorIntegerArith            0      0.00%    100.00% # Class of committed instruction (Count)
system.cpu.commit.committedInstType_0::VectorFloatArith            0      0.00%    100.00% # Class of committed instruction (Count)
system.cpu.commit.committedInstType_0::VectorFloatConvert            0      0.00%    100.00% # Class of committed instruction (Count)
system.cpu.commit.committedInstType_0::VectorIntegerReduce            0      0.00%    100.00% # Class of committed instruction (Count)
system.cpu.commit.committedInstType_0::VectorFloatReduce            0      0.00%    100.00% # Class of committed instruction (Count)
system.cpu.commit.committedInstType_0::VectorMisc            0      0.00%    100.00% # Class of committed instruction (Count)
system.cpu.commit.committedInstType_0::VectorIntegerExtension            0      0.00%    100.00% # Class of committed instruction (Count)
system.cpu.commit.committedInstType_0::VectorConfig            0      0.00%    100.00% # Class of committed instruction (Count)
system.cpu.commit.committedInstType_0::total   2612657476                       # Class of committed instruction (Count)
system.cpu.commit.commitEligibleSamples      37253216                       # number cycles where commit BW limit reached (Cycle)
system.cpu.commitStats0.numInsts           1545989209                       # Number of instructions committed (thread level) (Count)
system.cpu.commitStats0.numOps             2612657476                       # Number of ops (including micro ops) committed (thread level) (Count)
system.cpu.commitStats0.numInstsNotNOP     1545989209                       # Number of instructions committed excluding NOPs or prefetches (Count)
system.cpu.commitStats0.numOpsNotNOP       2612657476                       # Number of Ops (including micro ops) Simulated (Count)
system.cpu.commitStats0.cpi                  2.694854                       # CPI: cycles per instruction (thread level) ((Cycle/Count))
system.cpu.commitStats0.ipc                  0.371078                       # IPC: instructions per cycle (thread level) ((Count/Cycle))
system.cpu.commitStats0.numMemRefs          755565453                       # Number of memory references committed (Count)
system.cpu.commitStats0.numFpInsts              20757                       # Number of float instructions (Count)
system.cpu.commitStats0.numIntInsts        2565844693                       # Number of integer instructions (Count)
system.cpu.commitStats0.numLoadInsts        478844052                       # Number of load instructions (Count)
system.cpu.commitStats0.numStoreInsts       276721401                       # Number of store instructions (Count)
system.cpu.commitStats0.numVecInsts                 0                       # Number of vector instructions (Count)
system.cpu.commitStats0.committedInstType::No_OpClass      1205072      0.05%      0.05% # Class of committed instruction. (Count)
system.cpu.commitStats0.committedInstType::IntAlu   1843884362     70.58%     70.62% # Class of committed instruction. (Count)
system.cpu.commitStats0.committedInstType::IntMult     11429314      0.44%     71.06% # Class of committed instruction. (Count)
system.cpu.commitStats0.committedInstType::IntDiv       560969      0.02%     71.08% # Class of committed instruction. (Count)
system.cpu.commitStats0.committedInstType::FloatAdd         1165      0.00%     71.08% # Class of committed instruction. (Count)
system.cpu.commitStats0.committedInstType::FloatCmp            0      0.00%     71.08% # Class of committed instruction. (Count)
system.cpu.commitStats0.committedInstType::FloatCvt            0      0.00%     71.08% # Class of committed instruction. (Count)
system.cpu.commitStats0.committedInstType::FloatMult            0      0.00%     71.08% # Class of committed instruction. (Count)
system.cpu.commitStats0.committedInstType::FloatMultAcc            0      0.00%     71.08% # Class of committed instruction. (Count)
system.cpu.commitStats0.committedInstType::FloatDiv            0      0.00%     71.08% # Class of committed instruction. (Count)
system.cpu.commitStats0.committedInstType::FloatMisc            0      0.00%     71.08% # Class of committed instruction. (Count)
system.cpu.commitStats0.committedInstType::FloatSqrt            0      0.00%     71.08% # Class of committed instruction. (Count)
system.cpu.commitStats0.committedInstType::SimdAdd          428      0.00%     71.08% # Class of committed instruction. (Count)
system.cpu.commitStats0.committedInstType::SimdAddAcc            0      0.00%     71.08% # Class of committed instruction. (Count)
system.cpu.commitStats0.committedInstType::SimdAlu         2840      0.00%     71.08% # Class of committed instruction. (Count)
system.cpu.commitStats0.committedInstType::SimdCmp            0      0.00%     71.08% # Class of committed instruction. (Count)
system.cpu.commitStats0.committedInstType::SimdCvt         2878      0.00%     71.08% # Class of committed instruction. (Count)
system.cpu.commitStats0.committedInstType::SimdMisc         4728      0.00%     71.08% # Class of committed instruction. (Count)
system.cpu.commitStats0.committedInstType::SimdMult            0      0.00%     71.08% # Class of committed instruction. (Count)
system.cpu.commitStats0.committedInstType::SimdMultAcc            0      0.00%     71.08% # Class of committed instruction. (Count)
system.cpu.commitStats0.committedInstType::SimdMatMultAcc            0      0.00%     71.08% # Class of committed instruction. (Count)
system.cpu.commitStats0.committedInstType::SimdShift          267      0.00%     71.08% # Class of committed instruction. (Count)
system.cpu.commitStats0.committedInstType::SimdShiftAcc            0      0.00%     71.08% # Class of committed instruction. (Count)
system.cpu.commitStats0.committedInstType::SimdDiv            0      0.00%     71.08% # Class of committed instruction. (Count)
system.cpu.commitStats0.committedInstType::SimdSqrt            0      0.00%     71.08% # Class of committed instruction. (Count)
system.cpu.commitStats0.committedInstType::SimdFloatAdd            0      0.00%     71.08% # Class of committed instruction. (Count)
system.cpu.commitStats0.committedInstType::SimdFloatAlu            0      0.00%     71.08% # Class of committed instruction. (Count)
system.cpu.commitStats0.committedInstType::SimdFloatCmp            0      0.00%     71.08% # Class of committed instruction. (Count)
system.cpu.commitStats0.committedInstType::SimdFloatCvt            0      0.00%     71.08% # Class of committed instruction. (Count)
system.cpu.commitStats0.committedInstType::SimdFloatDiv            0      0.00%     71.08% # Class of committed instruction. (Count)
system.cpu.commitStats0.committedInstType::SimdFloatMisc            0      0.00%     71.08% # Class of committed instruction. (Count)
system.cpu.commitStats0.committedInstType::SimdFloatMult            0      0.00%     71.08% # Class of committed instruction. (Count)
system.cpu.commitStats0.committedInstType::SimdFloatMultAcc            0      0.00%     71.08% # Class of committed instruction. (Count)
system.cpu.commitStats0.committedInstType::SimdFloatMatMultAcc            0      0.00%     71.08% # Class of committed instruction. (Count)
system.cpu.commitStats0.committedInstType::SimdFloatSqrt            0      0.00%     71.08% # Class of committed instruction. (Count)
system.cpu.commitStats0.committedInstType::SimdReduceAdd            0      0.00%     71.08% # Class of committed instruction. (Count)
system.cpu.commitStats0.committedInstType::SimdReduceAlu            0      0.00%     71.08% # Class of committed instruction. (Count)
system.cpu.commitStats0.committedInstType::SimdReduceCmp            0      0.00%     71.08% # Class of committed instruction. (Count)
system.cpu.commitStats0.committedInstType::SimdFloatReduceAdd            0      0.00%     71.08% # Class of committed instruction. (Count)
system.cpu.commitStats0.committedInstType::SimdFloatReduceCmp            0      0.00%     71.08% # Class of committed instruction. (Count)
system.cpu.commitStats0.committedInstType::SimdAes            0      0.00%     71.08% # Class of committed instruction. (Count)
system.cpu.commitStats0.committedInstType::SimdAesMix            0      0.00%     71.08% # Class of committed instruction. (Count)
system.cpu.commitStats0.committedInstType::SimdSha1Hash            0      0.00%     71.08% # Class of committed instruction. (Count)
system.cpu.commitStats0.committedInstType::SimdSha1Hash2            0      0.00%     71.08% # Class of committed instruction. (Count)
system.cpu.commitStats0.committedInstType::SimdSha256Hash            0      0.00%     71.08% # Class of committed instruction. (Count)
system.cpu.commitStats0.committedInstType::SimdSha256Hash2            0      0.00%     71.08% # Class of committed instruction. (Count)
system.cpu.commitStats0.committedInstType::SimdShaSigma2            0      0.00%     71.08% # Class of committed instruction. (Count)
system.cpu.commitStats0.committedInstType::SimdShaSigma3            0      0.00%     71.08% # Class of committed instruction. (Count)
system.cpu.commitStats0.committedInstType::SimdPredAlu            0      0.00%     71.08% # Class of committed instruction. (Count)
system.cpu.commitStats0.committedInstType::Matrix            0      0.00%     71.08% # Class of committed instruction. (Count)
system.cpu.commitStats0.committedInstType::MatrixMov            0      0.00%     71.08% # Class of committed instruction. (Count)
system.cpu.commitStats0.committedInstType::MatrixOP            0      0.00%     71.08% # Class of committed instruction. (Count)
system.cpu.commitStats0.committedInstType::MemRead    478840861     18.33%     89.41% # Class of committed instruction. (Count)
system.cpu.commitStats0.committedInstType::MemWrite    276718172     10.59%    100.00% # Class of committed instruction. (Count)
system.cpu.commitStats0.committedInstType::FloatMemRead         3191      0.00%    100.00% # Class of committed instruction. (Count)
system.cpu.commitStats0.committedInstType::FloatMemWrite         3229      0.00%    100.00% # Class of committed instruction. (Count)
system.cpu.commitStats0.committedInstType::IprAccess            0      0.00%    100.00% # Class of committed instruction. (Count)
system.cpu.commitStats0.committedInstType::InstPrefetch            0      0.00%    100.00% # Class of committed instruction. (Count)
system.cpu.commitStats0.committedInstType::VectorUnitStrideLoad            0      0.00%    100.00% # Class of committed instruction. (Count)
system.cpu.commitStats0.committedInstType::VectorUnitStrideStore            0      0.00%    100.00% # Class of committed instruction. (Count)
system.cpu.commitStats0.committedInstType::VectorUnitStrideMaskLoad            0      0.00%    100.00% # Class of committed instruction. (Count)
system.cpu.commitStats0.committedInstType::VectorUnitStrideMaskStore            0      0.00%    100.00% # Class of committed instruction. (Count)
system.cpu.commitStats0.committedInstType::VectorStridedLoad            0      0.00%    100.00% # Class of committed instruction. (Count)
system.cpu.commitStats0.committedInstType::VectorStridedStore            0      0.00%    100.00% # Class of committed instruction. (Count)
system.cpu.commitStats0.committedInstType::VectorIndexedLoad            0      0.00%    100.00% # Class of committed instruction. (Count)
system.cpu.commitStats0.committedInstType::VectorIndexedStore            0      0.00%    100.00% # Class of committed instruction. (Count)
system.cpu.commitStats0.committedInstType::VectorUnitStrideFaultOnlyFirstLoad            0      0.00%    100.00% # Class of committed instruction. (Count)
system.cpu.commitStats0.committedInstType::VectorWholeRegisterLoad            0      0.00%    100.00% # Class of committed instruction. (Count)
system.cpu.commitStats0.committedInstType::VectorWholeRegisterStore            0      0.00%    100.00% # Class of committed instruction. (Count)
system.cpu.commitStats0.committedInstType::VectorIntegerArith            0      0.00%    100.00% # Class of committed instruction. (Count)
system.cpu.commitStats0.committedInstType::VectorFloatArith            0      0.00%    100.00% # Class of committed instruction. (Count)
system.cpu.commitStats0.committedInstType::VectorFloatConvert            0      0.00%    100.00% # Class of committed instruction. (Count)
system.cpu.commitStats0.committedInstType::VectorIntegerReduce            0      0.00%    100.00% # Class of committed instruction. (Count)
system.cpu.commitStats0.committedInstType::VectorFloatReduce            0      0.00%    100.00% # Class of committed instruction. (Count)
system.cpu.commitStats0.committedInstType::VectorMisc            0      0.00%    100.00% # Class of committed instruction. (Count)
system.cpu.commitStats0.committedInstType::VectorIntegerExtension            0      0.00%    100.00% # Class of committed instruction. (Count)
system.cpu.commitStats0.committedInstType::VectorConfig            0      0.00%    100.00% # Class of committed instruction. (Count)
system.cpu.commitStats0.committedInstType::total   2612657476                       # Class of committed instruction. (Count)
system.cpu.commitStats0.committedControl::IsControl    199393633                       # Class of control type instructions committed (Count)
system.cpu.commitStats0.committedControl::IsDirectControl    198189101                       # Class of control type instructions committed (Count)
system.cpu.commitStats0.committedControl::IsIndirectControl      1204487                       # Class of control type instructions committed (Count)
system.cpu.commitStats0.committedControl::IsCondControl    185395273                       # Class of control type instructions committed (Count)
system.cpu.commitStats0.committedControl::IsUncondControl     13998315                       # Class of control type instructions committed (Count)
system.cpu.commitStats0.committedControl::IsCall      1202458                       # Class of control type instructions committed (Count)
system.cpu.commitStats0.committedControl::IsReturn      1202453                       # Class of control type instructions committed (Count)
system.cpu.dcache.demandHits::cpu.data      418861904                       # number of demand (read+write) hits (Count)
system.cpu.dcache.demandHits::total         418861904                       # number of demand (read+write) hits (Count)
system.cpu.dcache.overallHits::cpu.data     418861904                       # number of overall hits (Count)
system.cpu.dcache.overallHits::total        418861904                       # number of overall hits (Count)
system.cpu.dcache.demandMisses::cpu.data     11815890                       # number of demand (read+write) misses (Count)
system.cpu.dcache.demandMisses::total        11815890                       # number of demand (read+write) misses (Count)
system.cpu.dcache.overallMisses::cpu.data     11815890                       # number of overall misses (Count)
system.cpu.dcache.overallMisses::total       11815890                       # number of overall misses (Count)
system.cpu.dcache.demandMissLatency::cpu.data 830618012999                       # number of demand (read+write) miss ticks (Tick)
system.cpu.dcache.demandMissLatency::total 830618012999                       # number of demand (read+write) miss ticks (Tick)
system.cpu.dcache.overallMissLatency::cpu.data 830618012999                       # number of overall miss ticks (Tick)
system.cpu.dcache.overallMissLatency::total 830618012999                       # number of overall miss ticks (Tick)
system.cpu.dcache.demandAccesses::cpu.data    430677794                       # number of demand (read+write) accesses (Count)
system.cpu.dcache.demandAccesses::total     430677794                       # number of demand (read+write) accesses (Count)
system.cpu.dcache.overallAccesses::cpu.data    430677794                       # number of overall (read+write) accesses (Count)
system.cpu.dcache.overallAccesses::total    430677794                       # number of overall (read+write) accesses (Count)
system.cpu.dcache.demandMissRate::cpu.data     0.027436                       # miss rate for demand accesses (Ratio)
system.cpu.dcache.demandMissRate::total      0.027436                       # miss rate for demand accesses (Ratio)
system.cpu.dcache.overallMissRate::cpu.data     0.027436                       # miss rate for overall accesses (Ratio)
system.cpu.dcache.overallMissRate::total     0.027436                       # miss rate for overall accesses (Ratio)
system.cpu.dcache.demandAvgMissLatency::cpu.data 70296.694790                       # average overall miss latency in ticks ((Tick/Count))
system.cpu.dcache.demandAvgMissLatency::total 70296.694790                       # average overall miss latency in ticks ((Tick/Count))
system.cpu.dcache.overallAvgMissLatency::cpu.data 70296.694790                       # average overall miss latency ((Tick/Count))
system.cpu.dcache.overallAvgMissLatency::total 70296.694790                       # average overall miss latency ((Tick/Count))
system.cpu.dcache.blockedCycles::no_mshrs         1818                       # number of cycles access was blocked (Cycle)
system.cpu.dcache.blockedCycles::no_targets            0                       # number of cycles access was blocked (Cycle)
system.cpu.dcache.blockedCauses::no_mshrs           42                       # number of times access was blocked (Count)
system.cpu.dcache.blockedCauses::no_targets            0                       # number of times access was blocked (Count)
system.cpu.dcache.avgBlocked::no_mshrs      43.285714                       # average number of cycles each access was blocked ((Cycle/Count))
system.cpu.dcache.avgBlocked::no_targets          nan                       # average number of cycles each access was blocked ((Cycle/Count))
system.cpu.dcache.writebacks::writebacks       121897                       # number of writebacks (Count)
system.cpu.dcache.writebacks::total            121897                       # number of writebacks (Count)
system.cpu.dcache.demandMshrHits::cpu.data       248596                       # number of demand (read+write) MSHR hits (Count)
system.cpu.dcache.demandMshrHits::total        248596                       # number of demand (read+write) MSHR hits (Count)
system.cpu.dcache.overallMshrHits::cpu.data       248596                       # number of overall MSHR hits (Count)
system.cpu.dcache.overallMshrHits::total       248596                       # number of overall MSHR hits (Count)
system.cpu.dcache.demandMshrMisses::cpu.data     11567294                       # number of demand (read+write) MSHR misses (Count)
system.cpu.dcache.demandMshrMisses::total     11567294                       # number of demand (read+write) MSHR misses (Count)
system.cpu.dcache.overallMshrMisses::cpu.data     11567294                       # number of overall MSHR misses (Count)
system.cpu.dcache.overallMshrMisses::total     11567294                       # number of overall MSHR misses (Count)
system.cpu.dcache.demandMshrMissLatency::cpu.data 817219840999                       # number of demand (read+write) MSHR miss ticks (Tick)
system.cpu.dcache.demandMshrMissLatency::total 817219840999                       # number of demand (read+write) MSHR miss ticks (Tick)
system.cpu.dcache.overallMshrMissLatency::cpu.data 817219840999                       # number of overall MSHR miss ticks (Tick)
system.cpu.dcache.overallMshrMissLatency::total 817219840999                       # number of overall MSHR miss ticks (Tick)
system.cpu.dcache.demandMshrMissRate::cpu.data     0.026858                       # mshr miss ratio for demand accesses (Ratio)
system.cpu.dcache.demandMshrMissRate::total     0.026858                       # mshr miss ratio for demand accesses (Ratio)
system.cpu.dcache.overallMshrMissRate::cpu.data     0.026858                       # mshr miss ratio for overall accesses (Ratio)
system.cpu.dcache.overallMshrMissRate::total     0.026858                       # mshr miss ratio for overall accesses (Ratio)
system.cpu.dcache.demandAvgMshrMissLatency::cpu.data 70649.180439                       # average overall mshr miss latency ((Tick/Count))
system.cpu.dcache.demandAvgMshrMissLatency::total 70649.180439                       # average overall mshr miss latency ((Tick/Count))
system.cpu.dcache.overallAvgMshrMissLatency::cpu.data 70649.180439                       # average overall mshr miss latency ((Tick/Count))
system.cpu.dcache.overallAvgMshrMissLatency::total 70649.180439                       # average overall mshr miss latency ((Tick/Count))
system.cpu.dcache.replacements                5372675                       # number of replacements (Count)
system.cpu.dcache.CleanInvalidReq.missLatency::cpu.data 195459180000                       # number of CleanInvalidReq miss ticks (Tick)
system.cpu.dcache.CleanInvalidReq.missLatency::total 195459180000                       # number of CleanInvalidReq miss ticks (Tick)
system.cpu.dcache.CleanInvalidReq.avgMissLatency::cpu.data          inf                       # average CleanInvalidReq miss latency ((Tick/Count))
system.cpu.dcache.CleanInvalidReq.avgMissLatency::total          inf                       # average CleanInvalidReq miss latency ((Tick/Count))
system.cpu.dcache.CleanInvalidReq.mshrMisses::cpu.data     11428560                       # number of CleanInvalidReq MSHR misses (Count)
system.cpu.dcache.CleanInvalidReq.mshrMisses::total     11428560                       # number of CleanInvalidReq MSHR misses (Count)
system.cpu.dcache.CleanInvalidReq.mshrMissLatency::cpu.data 348940621500                       # number of CleanInvalidReq MSHR miss ticks (Tick)
system.cpu.dcache.CleanInvalidReq.mshrMissLatency::total 348940621500                       # number of CleanInvalidReq MSHR miss ticks (Tick)
system.cpu.dcache.CleanInvalidReq.mshrMissRate::cpu.data          inf                       # mshr miss rate for CleanInvalidReq accesses (Ratio)
system.cpu.dcache.CleanInvalidReq.mshrMissRate::total          inf                       # mshr miss rate for CleanInvalidReq accesses (Ratio)
system.cpu.dcache.CleanInvalidReq.avgMshrMissLatency::cpu.data 30532.334914                       # average CleanInvalidReq mshr miss latency ((Tick/Count))
system.cpu.dcache.CleanInvalidReq.avgMshrMissLatency::total 30532.334914                       # average CleanInvalidReq mshr miss latency ((Tick/Count))
system.cpu.dcache.LockedRMWReadReq.hits::cpu.data           10                       # number of LockedRMWReadReq hits (Count)
system.cpu.dcache.LockedRMWReadReq.hits::total           10                       # number of LockedRMWReadReq hits (Count)
system.cpu.dcache.LockedRMWReadReq.misses::cpu.data            2                       # number of LockedRMWReadReq misses (Count)
system.cpu.dcache.LockedRMWReadReq.misses::total            2                       # number of LockedRMWReadReq misses (Count)
system.cpu.dcache.LockedRMWReadReq.missLatency::cpu.data        99000                       # number of LockedRMWReadReq miss ticks (Tick)
system.cpu.dcache.LockedRMWReadReq.missLatency::total        99000                       # number of LockedRMWReadReq miss ticks (Tick)
system.cpu.dcache.LockedRMWReadReq.accesses::cpu.data           12                       # number of LockedRMWReadReq accesses(hits+misses) (Count)
system.cpu.dcache.LockedRMWReadReq.accesses::total           12                       # number of LockedRMWReadReq accesses(hits+misses) (Count)
system.cpu.dcache.LockedRMWReadReq.missRate::cpu.data     0.166667                       # miss rate for LockedRMWReadReq accesses (Ratio)
system.cpu.dcache.LockedRMWReadReq.missRate::total     0.166667                       # miss rate for LockedRMWReadReq accesses (Ratio)
system.cpu.dcache.LockedRMWReadReq.avgMissLatency::cpu.data        49500                       # average LockedRMWReadReq miss latency ((Tick/Count))
system.cpu.dcache.LockedRMWReadReq.avgMissLatency::total        49500                       # average LockedRMWReadReq miss latency ((Tick/Count))
system.cpu.dcache.LockedRMWReadReq.mshrMisses::cpu.data            2                       # number of LockedRMWReadReq MSHR misses (Count)
system.cpu.dcache.LockedRMWReadReq.mshrMisses::total            2                       # number of LockedRMWReadReq MSHR misses (Count)
system.cpu.dcache.LockedRMWReadReq.mshrMissLatency::cpu.data       239000                       # number of LockedRMWReadReq MSHR miss ticks (Tick)
system.cpu.dcache.LockedRMWReadReq.mshrMissLatency::total       239000                       # number of LockedRMWReadReq MSHR miss ticks (Tick)
system.cpu.dcache.LockedRMWReadReq.mshrMissRate::cpu.data     0.166667                       # mshr miss rate for LockedRMWReadReq accesses (Ratio)
system.cpu.dcache.LockedRMWReadReq.mshrMissRate::total     0.166667                       # mshr miss rate for LockedRMWReadReq accesses (Ratio)
system.cpu.dcache.LockedRMWReadReq.avgMshrMissLatency::cpu.data       119500                       # average LockedRMWReadReq mshr miss latency ((Tick/Count))
system.cpu.dcache.LockedRMWReadReq.avgMshrMissLatency::total       119500                       # average LockedRMWReadReq mshr miss latency ((Tick/Count))
system.cpu.dcache.LockedRMWWriteReq.hits::cpu.data           12                       # number of LockedRMWWriteReq hits (Count)
system.cpu.dcache.LockedRMWWriteReq.hits::total           12                       # number of LockedRMWWriteReq hits (Count)
system.cpu.dcache.LockedRMWWriteReq.accesses::cpu.data           12                       # number of LockedRMWWriteReq accesses(hits+misses) (Count)
system.cpu.dcache.LockedRMWWriteReq.accesses::total           12                       # number of LockedRMWWriteReq accesses(hits+misses) (Count)
system.cpu.dcache.ReadReq.hits::cpu.data    153571467                       # number of ReadReq hits (Count)
system.cpu.dcache.ReadReq.hits::total       153571467                       # number of ReadReq hits (Count)
system.cpu.dcache.ReadReq.misses::cpu.data     11813373                       # number of ReadReq misses (Count)
system.cpu.dcache.ReadReq.misses::total      11813373                       # number of ReadReq misses (Count)
system.cpu.dcache.ReadReq.missLatency::cpu.data 830429445000                       # number of ReadReq miss ticks (Tick)
system.cpu.dcache.ReadReq.missLatency::total 830429445000                       # number of ReadReq miss ticks (Tick)
system.cpu.dcache.ReadReq.accesses::cpu.data    165384840                       # number of ReadReq accesses(hits+misses) (Count)
system.cpu.dcache.ReadReq.accesses::total    165384840                       # number of ReadReq accesses(hits+misses) (Count)
system.cpu.dcache.ReadReq.missRate::cpu.data     0.071430                       # miss rate for ReadReq accesses (Ratio)
system.cpu.dcache.ReadReq.missRate::total     0.071430                       # miss rate for ReadReq accesses (Ratio)
system.cpu.dcache.ReadReq.avgMissLatency::cpu.data 70295.710209                       # average ReadReq miss latency ((Tick/Count))
system.cpu.dcache.ReadReq.avgMissLatency::total 70295.710209                       # average ReadReq miss latency ((Tick/Count))
system.cpu.dcache.ReadReq.mshrHits::cpu.data       248595                       # number of ReadReq MSHR hits (Count)
system.cpu.dcache.ReadReq.mshrHits::total       248595                       # number of ReadReq MSHR hits (Count)
system.cpu.dcache.ReadReq.mshrMisses::cpu.data     11564778                       # number of ReadReq MSHR misses (Count)
system.cpu.dcache.ReadReq.mshrMisses::total     11564778                       # number of ReadReq MSHR misses (Count)
system.cpu.dcache.ReadReq.mshrMissLatency::cpu.data 817033818000                       # number of ReadReq MSHR miss ticks (Tick)
system.cpu.dcache.ReadReq.mshrMissLatency::total 817033818000                       # number of ReadReq MSHR miss ticks (Tick)
system.cpu.dcache.ReadReq.mshrMissRate::cpu.data     0.069926                       # mshr miss rate for ReadReq accesses (Ratio)
system.cpu.dcache.ReadReq.mshrMissRate::total     0.069926                       # mshr miss rate for ReadReq accesses (Ratio)
system.cpu.dcache.ReadReq.avgMshrMissLatency::cpu.data 70648.465366                       # average ReadReq mshr miss latency ((Tick/Count))
system.cpu.dcache.ReadReq.avgMshrMissLatency::total 70648.465366                       # average ReadReq mshr miss latency ((Tick/Count))
system.cpu.dcache.WriteReq.hits::cpu.data    265290437                       # number of WriteReq hits (Count)
system.cpu.dcache.WriteReq.hits::total      265290437                       # number of WriteReq hits (Count)
system.cpu.dcache.WriteReq.misses::cpu.data         2517                       # number of WriteReq misses (Count)
system.cpu.dcache.WriteReq.misses::total         2517                       # number of WriteReq misses (Count)
system.cpu.dcache.WriteReq.missLatency::cpu.data    188567999                       # number of WriteReq miss ticks (Tick)
system.cpu.dcache.WriteReq.missLatency::total    188567999                       # number of WriteReq miss ticks (Tick)
system.cpu.dcache.WriteReq.accesses::cpu.data    265292954                       # number of WriteReq accesses(hits+misses) (Count)
system.cpu.dcache.WriteReq.accesses::total    265292954                       # number of WriteReq accesses(hits+misses) (Count)
system.cpu.dcache.WriteReq.missRate::cpu.data     0.000009                       # miss rate for WriteReq accesses (Ratio)
system.cpu.dcache.WriteReq.missRate::total     0.000009                       # miss rate for WriteReq accesses (Ratio)
system.cpu.dcache.WriteReq.avgMissLatency::cpu.data 74917.758840                       # average WriteReq miss latency ((Tick/Count))
system.cpu.dcache.WriteReq.avgMissLatency::total 74917.758840                       # average WriteReq miss latency ((Tick/Count))
system.cpu.dcache.WriteReq.mshrHits::cpu.data            1                       # number of WriteReq MSHR hits (Count)
system.cpu.dcache.WriteReq.mshrHits::total            1                       # number of WriteReq MSHR hits (Count)
system.cpu.dcache.WriteReq.mshrMisses::cpu.data         2516                       # number of WriteReq MSHR misses (Count)
system.cpu.dcache.WriteReq.mshrMisses::total         2516                       # number of WriteReq MSHR misses (Count)
system.cpu.dcache.WriteReq.mshrMissLatency::cpu.data    186022999                       # number of WriteReq MSHR miss ticks (Tick)
system.cpu.dcache.WriteReq.mshrMissLatency::total    186022999                       # number of WriteReq MSHR miss ticks (Tick)
system.cpu.dcache.WriteReq.mshrMissRate::cpu.data     0.000009                       # mshr miss rate for WriteReq accesses (Ratio)
system.cpu.dcache.WriteReq.mshrMissRate::total     0.000009                       # mshr miss rate for WriteReq accesses (Ratio)
system.cpu.dcache.WriteReq.avgMshrMissLatency::cpu.data 73936.009141                       # average WriteReq mshr miss latency ((Tick/Count))
system.cpu.dcache.WriteReq.avgMshrMissLatency::total 73936.009141                       # average WriteReq mshr miss latency ((Tick/Count))
system.cpu.dcache.power_state.pwrStateResidencyTicks::UNDEFINED 2083107857500                       # Cumulative time (in ticks) in various power states (Tick)
system.cpu.dcache.tags.tagsInUse           968.012980                       # Average ticks per tags in use ((Tick/Count))
system.cpu.dcache.tags.totalRefs            436622819                       # Total number of references to valid blocks. (Count)
system.cpu.dcache.tags.sampledRefs           11567296                       # Sample count of references to valid blocks. (Count)
system.cpu.dcache.tags.avgRefs              37.746317                       # Average number of references to valid blocks. ((Count/Count))
system.cpu.dcache.tags.warmupTick              179500                       # The tick when the warmup percentage was hit. (Tick)
system.cpu.dcache.tags.occupancies::cpu.data   968.012980                       # Average occupied blocks per tick, per requestor ((Count/Tick))
system.cpu.dcache.tags.avgOccs::cpu.data     0.945325                       # Average percentage of cache occupancy ((Ratio/Tick))
system.cpu.dcache.tags.avgOccs::total        0.945325                       # Average percentage of cache occupancy ((Ratio/Tick))
system.cpu.dcache.tags.occupanciesTaskId::1024         1024                       # Occupied blocks per task id (Count)
system.cpu.dcache.tags.ageTaskId_1024::0           79                       # Occupied blocks per task id, per block age (Count)
system.cpu.dcache.tags.ageTaskId_1024::1          110                       # Occupied blocks per task id, per block age (Count)
system.cpu.dcache.tags.ageTaskId_1024::4          835                       # Occupied blocks per task id, per block age (Count)
system.cpu.dcache.tags.ratioOccsTaskId::1024            1                       # Ratio of occupied blocks and all blocks, per task id (Ratio)
system.cpu.dcache.tags.tagAccesses          895780052                       # Number of tag accesses (Count)
system.cpu.dcache.tags.dataAccesses         895780052                       # Number of data accesses (Count)
system.cpu.dcache.tags.power_state.pwrStateResidencyTicks::UNDEFINED 2083107857500                       # Cumulative time (in ticks) in various power states (Tick)
system.cpu.decode.idleCycles                177737863                       # Number of cycles decode is idle (Cycle)
system.cpu.decode.blockedCycles            3392382400                       # Number of cycles decode is blocked (Cycle)
system.cpu.decode.runCycles                 317360393                       # Number of cycles decode is running (Cycle)
system.cpu.decode.unblockCycles             263215583                       # Number of cycles decode is unblocking (Cycle)
system.cpu.decode.squashCycles               15401724                       # Number of cycles decode is squashing (Cycle)
system.cpu.decode.branchResolved            257351984                       # Number of times decode resolved a branch (Count)
system.cpu.decode.branchMispred                  1176                       # Number of times decode detected a branch misprediction (Count)
system.cpu.decode.decodedInsts             4052525956                       # Number of instructions handled by decode (Count)
system.cpu.decode.squashedInsts                  5582                       # Number of squashed instructions handled by decode (Count)
system.cpu.dtb_walker_cache.blockedCycles::no_mshrs            0                       # number of cycles access was blocked (Cycle)
system.cpu.dtb_walker_cache.blockedCycles::no_targets            0                       # number of cycles access was blocked (Cycle)
system.cpu.dtb_walker_cache.blockedCauses::no_mshrs            0                       # number of times access was blocked (Count)
system.cpu.dtb_walker_cache.blockedCauses::no_targets            0                       # number of times access was blocked (Count)
system.cpu.dtb_walker_cache.avgBlocked::no_mshrs          nan                       # average number of cycles each access was blocked ((Cycle/Count))
system.cpu.dtb_walker_cache.avgBlocked::no_targets          nan                       # average number of cycles each access was blocked ((Cycle/Count))
system.cpu.dtb_walker_cache.replacements            0                       # number of replacements (Count)
[...]
system.mem_ctrls.dram.perBankWrBursts::15           16                       # Per bank write bursts (Count)
system.mem_ctrls.dram.totQLat             63892546000                       # Total ticks spent queuing (Tick)
system.mem_ctrls.dram.totBusLat           45978565000                       # Total ticks spent in databus transfers (Tick)
system.mem_ctrls.dram.totMemAccLat       236312164750                       # Total ticks spent from burst creation until serviced by the DRAM (Tick)
system.mem_ctrls.dram.avgQLat                 6948.08                       # Average queueing delay per DRAM burst ((Tick/Count))
system.mem_ctrls.dram.avgBusLat               5000.00                       # Average bus latency per DRAM burst ((Tick/Count))
system.mem_ctrls.dram.avgMemAccLat           25698.08                       # Average memory access latency per DRAM burst ((Tick/Count))
system.mem_ctrls.dram.readRowHits             6674972                       # Number of row buffer hits during reads (Count)
system.mem_ctrls.dram.writeRowHits                214                       # Number of row buffer hits during writes (Count)
system.mem_ctrls.dram.readRowHitRate            72.59                       # Row buffer hit rate for reads (Ratio)
system.mem_ctrls.dram.writeRowHitRate           93.04                       # Row buffer hit rate for writes (Ratio)
system.mem_ctrls.dram.bytesPerActivate::samples      2520744                       # Bytes accessed per row activation (Byte)
system.mem_ctrls.dram.bytesPerActivate::mean   233.477532                       # Bytes accessed per row activation (Byte)
system.mem_ctrls.dram.bytesPerActivate::gmean   202.149219                       # Bytes accessed per row activation (Byte)
system.mem_ctrls.dram.bytesPerActivate::stdev   111.522793                       # Bytes accessed per row activation (Byte)
system.mem_ctrls.dram.bytesPerActivate::0-127       347119     13.77%     13.77% # Bytes accessed per row activation (Byte)
system.mem_ctrls.dram.bytesPerActivate::128-255       925143     36.70%     50.47% # Bytes accessed per row activation (Byte)
system.mem_ctrls.dram.bytesPerActivate::256-383       763763     30.30%     80.77% # Bytes accessed per row activation (Byte)
system.mem_ctrls.dram.bytesPerActivate::384-511       466848     18.52%     99.29% # Bytes accessed per row activation (Byte)
system.mem_ctrls.dram.bytesPerActivate::512-639        17648      0.70%     99.99% # Bytes accessed per row activation (Byte)
system.mem_ctrls.dram.bytesPerActivate::640-767           24      0.00%     99.99% # Bytes accessed per row activation (Byte)
system.mem_ctrls.dram.bytesPerActivate::768-895           20      0.00%     99.99% # Bytes accessed per row activation (Byte)
system.mem_ctrls.dram.bytesPerActivate::896-1023           13      0.00%     99.99% # Bytes accessed per row activation (Byte)
system.mem_ctrls.dram.bytesPerActivate::1024-1151          166      0.01%    100.00% # Bytes accessed per row activation (Byte)
system.mem_ctrls.dram.bytesPerActivate::total      2520744                       # Bytes accessed per row activation (Byte)
system.mem_ctrls.dram.bytesRead             588525632                       # Total bytes read (Byte)
system.mem_ctrls.dram.bytesWritten              14720                       # Total bytes written (Byte)
system.mem_ctrls.dram.avgRdBW              282.522880                       # Average DRAM read bandwidth in MiBytes/s ((Byte/Second))
system.mem_ctrls.dram.avgWrBW                0.007066                       # Average DRAM write bandwidth in MiBytes/s ((Byte/Second))
system.mem_ctrls.dram.peakBW                 12800.00                       # Theoretical peak bandwidth in MiByte/s ((Byte/Second))
system.mem_ctrls.dram.busUtil                    2.21                       # Data bus utilization in percentage (Ratio)
system.mem_ctrls.dram.busUtilRead                2.21                       # Data bus utilization in percentage for reads (Ratio)
system.mem_ctrls.dram.busUtilWrite               0.00                       # Data bus utilization in percentage for writes (Ratio)
system.mem_ctrls.dram.pageHitRate               72.59                       # Row buffer hit rate, read and write combined (Ratio)
system.mem_ctrls.dram.power_state.pwrStateResidencyTicks::UNDEFINED 2083107857500                       # Cumulative time (in ticks) in various power states (Tick)
system.mem_ctrls.dram.rank0.actEnergy      8363724600                       # Energy for activate commands per rank (pJ) (Joule)
system.mem_ctrls.dram.rank0.preEnergy      4445402280                       # Energy for precharge commands per rank (pJ) (Joule)
system.mem_ctrls.dram.rank0.readEnergy    29119576080                       # Energy for read commands per rank (pJ) (Joule)
system.mem_ctrls.dram.rank0.writeEnergy        532440                       # Energy for write commands per rank (pJ) (Joule)
system.mem_ctrls.dram.rank0.refreshEnergy 164438327040.000031                       # Energy for refresh commands per rank (pJ) (Joule)
system.mem_ctrls.dram.rank0.actBackEnergy 635260601880                       # Energy for active background per rank (pJ) (Joule)
system.mem_ctrls.dram.rank0.preBackEnergy 264957120960                       # Energy for precharge background per rank (pJ) (Joule)
system.mem_ctrls.dram.rank0.actPowerDownEnergy            0                       # Energy for active power-down per rank (pJ) (Joule)
system.mem_ctrls.dram.rank0.prePowerDownEnergy            0                       # Energy for precharge power-down per rank (pJ) (Joule)
system.mem_ctrls.dram.rank0.selfRefreshEnergy            0                       # Energy for self refresh per rank (pJ) (Joule)
system.mem_ctrls.dram.rank0.totalEnergy  1106585285280                       # Total energy per rank (pJ) (Joule)
system.mem_ctrls.dram.rank0.averagePower   531.218430                       # Core power per rank (mW) (Watt)
system.mem_ctrls.dram.rank0.totalIdleTime            0                       # Total Idle time Per DRAM Rank (Tick)
system.mem_ctrls.dram.rank0.pwrStateTime::IDLE 683253090250                       # Time in different power states (Tick)
system.mem_ctrls.dram.rank0.pwrStateTime::REF  69559360000                       # Time in different power states (Tick)
system.mem_ctrls.dram.rank0.pwrStateTime::SREF            0                       # Time in different power states (Tick)
system.mem_ctrls.dram.rank0.pwrStateTime::PRE_PDN            0                       # Time in different power states (Tick)
system.mem_ctrls.dram.rank0.pwrStateTime::ACT 1330295407250                       # Time in different power states (Tick)
system.mem_ctrls.dram.rank0.pwrStateTime::ACT_PDN            0                       # Time in different power states (Tick)
system.mem_ctrls.dram.rank1.actEnergy      9634480380                       # Energy for activate commands per rank (pJ) (Joule)
system.mem_ctrls.dram.rank1.preEnergy      5120821200                       # Energy for precharge commands per rank (pJ) (Joule)
system.mem_ctrls.dram.rank1.readEnergy    36537814740                       # Energy for read commands per rank (pJ) (Joule)
system.mem_ctrls.dram.rank1.writeEnergy        668160                       # Energy for write commands per rank (pJ) (Joule)
system.mem_ctrls.dram.rank1.refreshEnergy 164438327040.000031                       # Energy for refresh commands per rank (pJ) (Joule)
system.mem_ctrls.dram.rank1.actBackEnergy 570882843930                       # Energy for active background per rank (pJ) (Joule)
system.mem_ctrls.dram.rank1.preBackEnergy 319169969760                       # Energy for precharge background per rank (pJ) (Joule)
system.mem_ctrls.dram.rank1.actPowerDownEnergy            0                       # Energy for active power-down per rank (pJ) (Joule)
system.mem_ctrls.dram.rank1.prePowerDownEnergy            0                       # Energy for precharge power-down per rank (pJ) (Joule)
system.mem_ctrls.dram.rank1.selfRefreshEnergy            0                       # Energy for self refresh per rank (pJ) (Joule)
system.mem_ctrls.dram.rank1.totalEnergy  1105784925210                       # Total energy per rank (pJ) (Joule)
system.mem_ctrls.dram.rank1.averagePower   530.834215                       # Core power per rank (mW) (Watt)
system.mem_ctrls.dram.rank1.totalIdleTime            0                       # Total Idle time Per DRAM Rank (Tick)
system.mem_ctrls.dram.rank1.pwrStateTime::IDLE 824997449500                       # Time in different power states (Tick)
system.mem_ctrls.dram.rank1.pwrStateTime::REF  69559360000                       # Time in different power states (Tick)
system.mem_ctrls.dram.rank1.pwrStateTime::SREF            0                       # Time in different power states (Tick)
system.mem_ctrls.dram.rank1.pwrStateTime::PRE_PDN            0                       # Time in different power states (Tick)
system.mem_ctrls.dram.rank1.pwrStateTime::ACT 1188551048000                       # Time in different power states (Tick)
system.mem_ctrls.dram.rank1.pwrStateTime::ACT_PDN            0                       # Time in different power states (Tick)
system.mem_ctrls.power_state.pwrStateResidencyTicks::UNDEFINED 2083107857500                       # Cumulative time (in ticks) in various power states (Tick)
system.membus.transDist::ReadResp            11431080                       # Transaction distribution (Count)
system.membus.transDist::WriteClean               257                       # Transaction distribution (Count)
system.membus.transDist::ReadExReq               2393                       # Transaction distribution (Count)
system.membus.transDist::ReadExResp              2393                       # Transaction distribution (Count)
system.membus.transDist::ReadSharedReq       11431080                       # Transaction distribution (Count)
system.membus.transDist::CleanInvalidReq     11428560                       # Transaction distribution (Count)
system.membus.pktCount_system.l2.mem_side_port::system.mem_ctrls.port     34295763                       # Packet count per connected requestor and responder (Count)
system.membus.pktCount_system.l2.mem_side_port::total     34295763                       # Packet count per connected requestor and responder (Count)
system.membus.pktCount::total                34295763                       # Packet count per connected requestor and responder (Count)
system.membus.pktSize_system.l2.mem_side_port::system.mem_ctrls.port    731758720                       # Cumulative packet size per connected requestor and responder (Byte)
system.membus.pktSize_system.l2.mem_side_port::total    731758720                       # Cumulative packet size per connected requestor and responder (Byte)
system.membus.pktSize::total                731758720                       # Cumulative packet size per connected requestor and responder (Byte)
system.membus.snoops                                0                       # Total snoops (Count)
system.membus.snoopTraffic                          0                       # Total snoop traffic (Byte)
system.membus.snoopFanout::samples           22862033                       # Request fanout histogram (Count)
system.membus.snoopFanout::mean                     0                       # Request fanout histogram (Count)
system.membus.snoopFanout::stdev                    0                       # Request fanout histogram (Count)
system.membus.snoopFanout::underflows               0      0.00%      0.00% # Request fanout histogram (Count)
system.membus.snoopFanout::0                 22862033    100.00%    100.00% # Request fanout histogram (Count)
system.membus.snoopFanout::1                        0      0.00%    100.00% # Request fanout histogram (Count)
system.membus.snoopFanout::overflows                0      0.00%    100.00% # Request fanout histogram (Count)
system.membus.snoopFanout::min_value                0                       # Request fanout histogram (Count)
system.membus.snoopFanout::max_value                0                       # Request fanout histogram (Count)
system.membus.snoopFanout::total             22862033                       # Request fanout histogram (Count)
system.membus.power_state.pwrStateResidencyTicks::UNDEFINED 2083107857500                       # Cumulative time (in ticks) in various power states (Tick)
system.membus.reqLayer2.occupancy         30230288500                       # Layer occupancy (ticks) (Tick)
system.membus.reqLayer2.utilization               0.0                       # Layer utilization (Ratio)
system.membus.respLayer1.occupancy        60080659750                       # Layer occupancy (ticks) (Tick)
system.membus.respLayer1.utilization              0.0                       # Layer utilization (Ratio)
system.membus.snoop_filter.totRequests       22862033                       # Total number of requests made to the snoop filter. (Count)
system.membus.snoop_filter.hitSingleRequests     11428560                       # Number of requests hitting in the snoop filter with a single holder of the requested data. (Count)
system.membus.snoop_filter.hitMultiRequests            0                       # Number of requests hitting in the snoop filter with multiple (>1) holders of the requested data. (Count)
system.membus.snoop_filter.totSnoops                0                       # Total number of snoops made to the snoop filter. (Count)
system.membus.snoop_filter.hitSingleSnoops            0                       # Number of snoops hitting in the snoop filter with a single holder of the requested data. (Count)
system.membus.snoop_filter.hitMultiSnoops            0                       # Number of snoops hitting in the snoop filter with multiple (>1) holders of the requested data. (Count)
system.tol2bus.transDist::ReadResp           11566624                       # Transaction distribution (Count)
system.tol2bus.transDist::WritebackDirty       121897                       # Transaction distribution (Count)
system.tol2bus.transDist::WritebackClean         1338                       # Transaction distribution (Count)
system.tol2bus.transDist::WriteClean              257                       # Transaction distribution (Count)
system.tol2bus.transDist::CleanEvict          5250778                       # Transaction distribution (Count)
system.tol2bus.transDist::ReadExReq              2518                       # Transaction distribution (Count)
system.tol2bus.transDist::ReadExResp             2518                       # Transaction distribution (Count)
system.tol2bus.transDist::ReadCleanReq           1847                       # Transaction distribution (Count)
system.tol2bus.transDist::ReadSharedReq      11564778                       # Transaction distribution (Count)
system.tol2bus.transDist::CleanInvalidReq     11428560                       # Transaction distribution (Count)
system.tol2bus.transDist::CleanInvalidResp     11428560                       # Transaction distribution (Count)
system.tol2bus.pktCount_system.cpu.icache.mem_side_port::system.l2.cpu_side_port         5031                       # Packet count per connected requestor and responder (Count)
system.tol2bus.pktCount_system.cpu.dcache.mem_side_port::system.l2.cpu_side_port     51364505                       # Packet count per connected requestor and responder (Count)
system.tol2bus.pktCount::total               51369536                       # Packet count per connected requestor and responder (Count)
system.tol2bus.pktSize_system.cpu.icache.mem_side_port::system.l2.cpu_side_port       203776                       # Cumulative packet size per connected requestor and responder (Byte)
system.tol2bus.pktSize_system.cpu.dcache.mem_side_port::system.l2.cpu_side_port    748115904                       # Cumulative packet size per connected requestor and responder (Byte)
system.tol2bus.pktSize::total               748319680                       # Cumulative packet size per connected requestor and responder (Byte)
system.tol2bus.snoops                             139                       # Total snoops (Count)
system.tol2bus.snoopTraffic                      8896                       # Total snoop traffic (Byte)
system.tol2bus.snoopFanout::samples          22997842                       # Request fanout histogram (Count)
system.tol2bus.snoopFanout::mean             0.000006                       # Request fanout histogram (Count)
system.tol2bus.snoopFanout::stdev            0.002511                       # Request fanout histogram (Count)
system.tol2bus.snoopFanout::underflows              0      0.00%      0.00% # Request fanout histogram (Count)
system.tol2bus.snoopFanout::0                22997697    100.00%    100.00% # Request fanout histogram (Count)
system.tol2bus.snoopFanout::1                     145      0.00%    100.00% # Request fanout histogram (Count)
system.tol2bus.snoopFanout::2                       0      0.00%    100.00% # Request fanout histogram (Count)
system.tol2bus.snoopFanout::3                       0      0.00%    100.00% # Request fanout histogram (Count)
system.tol2bus.snoopFanout::4                       0      0.00%    100.00% # Request fanout histogram (Count)
system.tol2bus.snoopFanout::overflows               0      0.00%    100.00% # Request fanout histogram (Count)
system.tol2bus.snoopFanout::min_value               0                       # Request fanout histogram (Count)
system.tol2bus.snoopFanout::max_value               1                       # Request fanout histogram (Count)
system.tol2bus.snoopFanout::total            22997842                       # Request fanout histogram (Count)
system.tol2bus.power_state.pwrStateResidencyTicks::UNDEFINED 2083107857500                       # Cumulative time (in ticks) in various power states (Tick)
system.tol2bus.reqLayer0.occupancy        14309270000                       # Layer occupancy (ticks) (Tick)
system.tol2bus.reqLayer0.utilization              0.0                       # Layer utilization (Ratio)
system.tol2bus.respLayer0.occupancy           2770497                       # Layer occupancy (ticks) (Tick)
system.tol2bus.respLayer0.utilization             0.0                       # Layer utilization (Ratio)
system.tol2bus.respLayer1.occupancy       23065224000                       # Layer occupancy (ticks) (Tick)
system.tol2bus.respLayer1.utilization             0.0                       # Layer utilization (Ratio)
system.tol2bus.snoop_filter.totRequests      28371716                       # Total number of requests made to the snoop filter. (Count)
system.tol2bus.snoop_filter.hitSingleRequests     11567610                       # Number of requests hitting in the snoop filter with a single holder of the requested data. (Count)
system.tol2bus.snoop_filter.hitMultiRequests            6                       # Number of requests hitting in the snoop filter with multiple (>1) holders of the requested data. (Count)
system.tol2bus.snoop_filter.totSnoops             139                       # Total number of snoops made to the snoop filter. (Count)
system.tol2bus.snoop_filter.hitSingleSnoops          139                       # Number of snoops hitting in the snoop filter with a single holder of the requested data. (Count)
system.tol2bus.snoop_filter.hitMultiSnoops            0                       # Number of snoops hitting in the snoop filter with multiple (>1) holders of the requested data. (Count)
system.voltage_domain.voltage                       1                       # Voltage in Volts (Volt)
system.workload.inst.arm                            0                       # number of arm instructions executed (Count)
system.workload.inst.quiesce                        0                       # number of quiesce instructions executed (Count)

---------- End Simulation Statistics   ----------
