
---------- Begin Simulation Statistics ----------
simSeconds                                   0.000244                       # Number of seconds simulated (Second)
simTicks                                    243573500                       # Number of ticks simulated (Tick)
finalTick                                   243573500                       # Number of ticks from beginning of simulation (restored from checkpoints and never reset) (Tick)
simFreq                                  1000000000000                       # The number of ticks per simulated second ((Tick/Second))
hostSeconds                                      1.78                       # Real time elapsed on the host (Second)
hostTickRate                                136670221                       # The number of ticks simulated per host second (ticks/s) ((Tick/Second))
hostMemory                                     703636                       # Number of bytes of host memory used (Byte)
simInsts                                       344524                       # Number of instructions simulated (Count)
simOps                                         659159                       # Number of ops (including micro ops) simulated (Count)
hostInstRate                                   193298                       # Simulator instruction rate (inst/s) ((Count/Second))
hostOpRate                                     369825                       # Simulator op (including micro ops) rate (op/s) ((Count/Second))
system.clk_domain.clock                          1000                       # Clock period in ticks (Tick)
system.cpu.numCycles                           487148                       # Number of cpu cycles simulated (Cycle)
system.cpu.cpi                               1.413974                       # CPI: cycles per instruction (core level) ((Cycle/Count))
system.cpu.ipc                               0.707227                       # IPC: instructions per cycle (core level) ((Count/Cycle))
system.cpu.numWorkItemsStarted                      0                       # Number of work items this cpu started (Count)
system.cpu.numWorkItemsCompleted                    0                       # Number of work items this cpu completed (Count)
system.cpu.instsAdded                          795443                       # Number of instructions added to the IQ (excludes non-spec) (Count)
system.cpu.nonSpecInstsAdded                       81                       # Number of non-speculative instructions added to the IQ (Count)
system.cpu.instsIssued                         756719                       # Number of instructions issued (Count)
system.cpu.squashedInstsIssued                    641                       # Number of squashed instructions issued (Count)
system.cpu.squashedInstsExamined               136359                       # Number of squashed instructions iterated over during squash; mainly for profiling (Count)
system.cpu.squashedOperandsExamined            215134                       # Number of squashed operands that are examined and possibly removed from graph (Count)
system.cpu.squashedNonSpecRemoved                  45                       # Number of squashed non-spec instructions that were removed (Count)
system.cpu.numIssuedDist::samples              378494                       # Number of insts issued each cycle (Count)
system.cpu.numIssuedDist::mean               1.999289                       # Number of insts issued each cycle (Count)
system.cpu.numIssuedDist::stdev              2.433958                       # Number of insts issued each cycle (Count)
system.cpu.numIssuedDist::underflows                0      0.00%      0.00% # Number of insts issued each cycle (Count)
system.cpu.numIssuedDist::0                    185450     49.00%     49.00% # Number of insts issued each cycle (Count)
system.cpu.numIssuedDist::1                     24268      6.41%     55.41% # Number of insts issued each cycle (Count)
system.cpu.numIssuedDist::2                     32567      8.60%     64.01% # Number of insts issued each cycle (Count)
system.cpu.numIssuedDist::3                     33592      8.88%     72.89% # Number of insts issued each cycle (Count)
system.cpu.numIssuedDist::4                     26908      7.11%     80.00% # Number of insts issued each cycle (Count)
system.cpu.numIssuedDist::5                     30187      7.98%     87.97% # Number of insts issued each cycle (Count)
system.cpu.numIssuedDist::6                     21353      5.64%     93.61% # Number of insts issued each cycle (Count)
system.cpu.numIssuedDist::7                     13496      3.57%     97.18% # Number of insts issued each cycle (Count)
system.cpu.numIssuedDist::8                     10673      2.82%    100.00% # Number of insts issued each cycle (Count)
system.cpu.numIssuedDist::overflows                 0      0.00%    100.00% # Number of insts issued each cycle (Count)
system.cpu.numIssuedDist::min_value                 0                       # Number of insts issued each cycle (Count)
system.cpu.numIssuedDist::max_value                 8                       # Number of insts issued each cycle (Count)
system.cpu.numIssuedDist::total                378494                       # Number of insts issued each cycle (Count)
system.cpu.statFuBusy::No_OpClass                   0      0.00%      0.00% # attempts to use FU when none available (Count)
system.cpu.statFuBusy::IntAlu                    8384     83.70%     83.70% # attempts to use FU when none available (Count)
system.cpu.statFuBusy::IntMult                      0      0.00%     83.70% # attempts to use FU when none available (Count)
system.cpu.statFuBusy::IntDiv                       0      0.00%     83.70% # attempts to use FU when none available (Count)
system.cpu.statFuBusy::FloatAdd                     0      0.00%     83.70% # attempts to use FU when none available (Count)
system.cpu.statFuBusy::FloatCmp                     0      0.00%     83.70% # attempts to use FU when none available (Count)
system.cpu.statFuBusy::FloatCvt                     0      0.00%     83.70% # attempts to use FU when none available (Count)
system.cpu.statFuBusy::FloatMult                    0      0.00%     83.70% # attempts to use FU when none available (Count)
system.cpu.statFuBusy::FloatMultAcc                 0      0.00%     83.70% # attempts to use FU when none available (Count)
system.cpu.statFuBusy::FloatDiv                     0      0.00%     83.70% # attempts to use FU when none available (Count)
system.cpu.statFuBusy::FloatMisc                    0      0.00%     83.70% # attempts to use FU when none available (Count)
system.cpu.statFuBusy::FloatSqrt                    0      0.00%     83.70% # attempts to use FU when none available (Count)
system.cpu.statFuBusy::SimdAdd                      0      0.00%     83.70% # attempts to use FU when none available (Count)
system.cpu.statFuBusy::SimdAddAcc                   0      0.00%     83.70% # attempts to use FU when none available (Count)
system.cpu.statFuBusy::SimdAlu                     17      0.17%     83.87% # attempts to use FU when none available (Count)
system.cpu.statFuBusy::SimdCmp                      0      0.00%     83.87% # attempts to use FU when none available (Count)
system.cpu.statFuBusy::SimdCvt                    518      5.17%     89.04% # attempts to use FU when none available (Count)
system.cpu.statFuBusy::SimdMisc                     2      0.02%     89.06% # attempts to use FU when none available (Count)
system.cpu.statFuBusy::SimdMult                     0      0.00%     89.06% # attempts to use FU when none available (Count)
system.cpu.statFuBusy::SimdMultAcc                  0      0.00%     89.06% # attempts to use FU when none available (Count)
system.cpu.statFuBusy::SimdMatMultAcc               0      0.00%     89.06% # attempts to use FU when none available (Count)
system.cpu.statFuBusy::SimdShift                   14      0.14%     89.20% # attempts to use FU when none available (Count)
system.cpu.statFuBusy::SimdShiftAcc                 0      0.00%     89.20% # attempts to use FU when none available (Count)
system.cpu.statFuBusy::SimdDiv                      0      0.00%     89.20% # attempts to use FU when none available (Count)
system.cpu.statFuBusy::SimdSqrt                     0      0.00%     89.20% # attempts to use FU when none available (Count)
system.cpu.statFuBusy::SimdFloatAdd                 0      0.00%     89.20% # attempts to use FU when none available (Count)
system.cpu.statFuBusy::SimdFloatAlu                 0      0.00%     89.20% # attempts to use FU when none available (Count)
system.cpu.statFuBusy::SimdFloatCmp                 0      0.00%     89.20% # attempts to use FU when none available (Count)
system.cpu.statFuBusy::SimdFloatCvt                 0      0.00%     89.20% # attempts to use FU when none available (Count)
system.cpu.statFuBusy::SimdFloatDiv                 0      0.00%     89.20% # attempts to use FU when none available (Count)
system.cpu.statFuBusy::SimdFloatMisc                0      0.00%     89.20% # attempts to use FU when none available (Count)
system.cpu.statFuBusy::SimdFloatMult                0      0.00%     89.20% # attempts to use FU when none available (Count)
system.cpu.statFuBusy::SimdFloatMultAcc             0      0.00%     89.20% # attempts to use FU when none available (Count)
system.cpu.statFuBusy::SimdFloatMatMultAcc            0      0.00%     89.20% # attempts to use FU when none available (Count)
system.cpu.statFuBusy::SimdFloatSqrt                0      0.00%     89.20% # attempts to use FU when none available (Count)
system.cpu.statFuBusy::SimdReduceAdd                0      0.00%     89.20% # attempts to use FU when none available (Count)
system.cpu.statFuBusy::SimdReduceAlu                0      0.00%     89.20% # attempts to use FU when none available (Count)
system.cpu.statFuBusy::SimdReduceCmp                0      0.00%     89.20% # attempts to use FU when none available (Count)
system.cpu.statFuBusy::SimdFloatReduceAdd            0      0.00%     89.20% # attempts to use FU when none available (Count)
system.cpu.statFuBusy::SimdFloatReduceCmp            0      0.00%     89.20% # attempts to use FU when none available (Count)
system.cpu.statFuBusy::SimdAes                      0      0.00%     89.20% # attempts to use FU when none available (Count)
system.cpu.statFuBusy::SimdAesMix                   0      0.00%     89.20% # attempts to use FU when none available (Count)
system.cpu.statFuBusy::SimdSha1Hash                 0      0.00%     89.20% # attempts to use FU when none available (Count)
system.cpu.statFuBusy::SimdSha1Hash2                0      0.00%     89.20% # attempts to use FU when none available (Count)
system.cpu.statFuBusy::SimdSha256Hash               0      0.00%     89.20% # attempts to use FU when none available (Count)
system.cpu.statFuBusy::SimdSha256Hash2              0      0.00%     89.20% # attempts to use FU when none available (Count)
system.cpu.statFuBusy::SimdShaSigma2                0      0.00%     89.20% # attempts to use FU when none available (Count)
system.cpu.statFuBusy::SimdShaSigma3                0      0.00%     89.20% # attempts to use FU when none available (Count)
system.cpu.statFuBusy::SimdPredAlu                  0      0.00%     89.20% # attempts to use FU when none available (Count)
system.cpu.statFuBusy::Matrix                       0      0.00%     89.20% # attempts to use FU when none available (Count)
system.cpu.statFuBusy::MatrixMov                    0      0.00%     89.20% # attempts to use FU when none available (Count)
system.cpu.statFuBusy::MatrixOP                     0      0.00%     89.20% # attempts to use FU when none available (Count)
system.cpu.statFuBusy::MemRead                    767      7.66%     96.86% # attempts to use FU when none available (Count)
system.cpu.statFuBusy::MemWrite                   267      2.67%     99.52% # attempts to use FU when none available (Count)
system.cpu.statFuBusy::FloatMemRead                11      0.11%     99.63% # attempts to use FU when none available (Count)
system.cpu.statFuBusy::FloatMemWrite               37      0.37%    100.00% # attempts to use FU when none available (Count)
system.cpu.statFuBusy::IprAccess                    0      0.00%    100.00% # attempts to use FU when none available (Count)
system.cpu.statFuBusy::InstPrefetch                 0      0.00%    100.00% # attempts to use FU when none available (Count)
system.cpu.statFuBusy::VectorUnitStrideLoad            0      0.00%    100.00% # attempts to use FU when none available (Count)
system.cpu.statFuBusy::VectorUnitStrideStore            0      0.00%    100.00% # attempts to use FU when none available (Count)
system.cpu.statFuBusy::VectorUnitStrideMaskLoad            0      0.00%    100.00% # attempts to use FU when none available (Count)
system.cpu.statFuBusy::VectorUnitStrideMaskStore            0      0.00%    100.00% # attempts to use FU when none available (Count)
system.cpu.statFuBusy::VectorStridedLoad            0      0.00%    100.00% # attempts to use FU when none available (Count)
system.cpu.statFuBusy::VectorStridedStore            0      0.00%    100.00% # attempts to use FU when none available (Count)
system.cpu.statFuBusy::VectorIndexedLoad            0      0.00%    100.00% # attempts to use FU when none available (Count)
system.cpu.statFuBusy::VectorIndexedStore            0      0.00%    100.00% # attempts to use FU when none available (Count)
system.cpu.statFuBusy::VectorUnitStrideFaultOnlyFirstLoad            0      0.00%    100.00% # attempts to use FU when none available (Count)
system.cpu.statFuBusy::VectorWholeRegisterLoad            0      0.00%    100.00% # attempts to use FU when none available (Count)
system.cpu.statFuBusy::VectorWholeRegisterStore            0      0.00%    100.00% # attempts to use FU when none available (Count)
system.cpu.statFuBusy::VectorIntegerArith            0      0.00%    100.00% # attempts to use FU when none available (Count)
system.cpu.statFuBusy::VectorFloatArith             0      0.00%    100.00% # attempts to use FU when none available (Count)
system.cpu.statFuBusy::VectorFloatConvert            0      0.00%    100.00% # attempts to use FU when none available (Count)
system.cpu.statFuBusy::VectorIntegerReduce            0      0.00%    100.00% # attempts to use FU when none available (Count)
system.cpu.statFuBusy::VectorFloatReduce            0      0.00%    100.00% # attempts to use FU when none available (Count)
system.cpu.statFuBusy::VectorMisc                   0      0.00%    100.00% # attempts to use FU when none available (Count)
system.cpu.statFuBusy::VectorIntegerExtension            0      0.00%    100.00% # attempts to use FU when none available (Count)
system.cpu.statFuBusy::VectorConfig                 0      0.00%    100.00% # attempts to use FU when none available (Count)
system.cpu.statIssuedInstType_0::No_OpClass        12740      1.68%      1.68% # Number of instructions issued per FU type, per thread (Count)
system.cpu.statIssuedInstType_0::IntAlu        562359     74.32%     76.00% # Number of instructions issued per FU type, per thread (Count)
system.cpu.statIssuedInstType_0::IntMult         1918      0.25%     76.25% # Number of instructions issued per FU type, per thread (Count)
system.cpu.statIssuedInstType_0::IntDiv          3312      0.44%     76.69% # Number of instructions issued per FU type, per thread (Count)
system.cpu.statIssuedInstType_0::FloatAdd         2275      0.30%     76.99% # Number of instructions issued per FU type, per thread (Count)
system.cpu.statIssuedInstType_0::FloatCmp            0      0.00%     76.99% # Number of instructions issued per FU type, per thread (Count)
system.cpu.statIssuedInstType_0::FloatCvt            0      0.00%     76.99% # Number of instructions issued per FU type, per thread (Count)
system.cpu.statIssuedInstType_0::FloatMult            0      0.00%     76.99% # Number of instructions issued per FU type, per thread (Count)
system.cpu.statIssuedInstType_0::FloatMultAcc            0      0.00%     76.99% # Number of instructions issued per FU type, per thread (Count)
system.cpu.statIssuedInstType_0::FloatDiv            0      0.00%     76.99% # Number of instructions issued per FU type, per thread (Count)
system.cpu.statIssuedInstType_0::FloatMisc            0      0.00%     76.99% # Number of instructions issued per FU type, per thread (Count)
system.cpu.statIssuedInstType_0::FloatSqrt            0      0.00%     76.99% # Number of instructions issued per FU type, per thread (Count)
system.cpu.statIssuedInstType_0::SimdAdd          517      0.07%     77.06% # Number of instructions issued per FU type, per thread (Count)
system.cpu.statIssuedInstType_0::SimdAddAcc            0      0.00%     77.06% # Number of instructions issued per FU type, per thread (Count)
system.cpu.statIssuedInstType_0::SimdAlu         5188      0.69%     77.74% # Number of instructions issued per FU type, per thread (Count)
system.cpu.statIssuedInstType_0::SimdCmp            0      0.00%     77.74% # Number of instructions issued per FU type, per thread (Count)
system.cpu.statIssuedInstType_0::SimdCvt         6465      0.85%     78.60% # Number of instructions issued per FU type, per thread (Count)
system.cpu.statIssuedInstType_0::SimdMisc         8035      1.06%     79.66% # Number of instructions issued per FU type, per thread (Count)
system.cpu.statIssuedInstType_0::SimdMult            0      0.00%     79.66% # Number of instructions issued per FU type, per thread (Count)
system.cpu.statIssuedInstType_0::SimdMultAcc            0      0.00%     79.66% # Number of instructions issued per FU type, per thread (Count)
system.cpu.statIssuedInstType_0::SimdMatMultAcc            0      0.00%     79.66% # Number of instructions issued per FU type, per thread (Count)
system.cpu.statIssuedInstType_0::SimdShift          625      0.08%     79.74% # Number of instructions issued per FU type, per thread (Count)
system.cpu.statIssuedInstType_0::SimdShiftAcc            0      0.00%     79.74% # Number of instructions issued per FU type, per thread (Count)
system.cpu.statIssuedInstType_0::SimdDiv            0      0.00%     79.74% # Number of instructions issued per FU type, per thread (Count)
system.cpu.statIssuedInstType_0::SimdSqrt            0      0.00%     79.74% # Number of instructions issued per FU type, per thread (Count)
system.cpu.statIssuedInstType_0::SimdFloatAdd            0      0.00%     79.74% # Number of instructions issued per FU type, per thread (Count)
system.cpu.statIssuedInstType_0::SimdFloatAlu            0      0.00%     79.74% # Number of instructions issued per FU type, per thread (Count)
system.cpu.statIssuedInstType_0::SimdFloatCmp            0      0.00%     79.74% # Number of instructions issued per FU type, per thread (Count)
system.cpu.statIssuedInstType_0::SimdFloatCvt            0      0.00%     79.74% # Number of instructions issued per FU type, per thread (Count)
system.cpu.statIssuedInstType_0::SimdFloatDiv            0      0.00%     79.74% # Number of instructions issued per FU type, per thread (Count)
system.cpu.statIssuedInstType_0::SimdFloatMisc            0      0.00%     79.74% # Number of instructions issued per FU type, per thread (Count)
system.cpu.statIssuedInstType_0::SimdFloatMult            0      0.00%     79.74% # Number of instructions issued per FU type, per thread (Count)
system.cpu.statIssuedInstType_0::SimdFloatMultAcc            0      0.00%     79.74% # Number of instructions issued per FU type, per thread (Count)
system.cpu.statIssuedInstType_0::SimdFloatMatMultAcc            0      0.00%     79.74% # Number of instructions issued per FU type, per thread (Count)
system.cpu.statIssuedInstType_0::SimdFloatSqrt            0      0.00%     79.74% # Number of instructions issued per FU type, per thread (Count)
system.cpu.statIssuedInstType_0::SimdReduceAdd            0      0.00%     79.74% # Number of instructions issued per FU type, per thread (Count)
system.cpu.statIssuedInstType_0::SimdReduceAlu            0      0.00%     79.74% # Number of instructions issued per FU type, per thread (Count)
system.cpu.statIssuedInstType_0::SimdReduceCmp            0      0.00%     79.74% # Number of instructions issued per FU type, per thread (Count)
system.cpu.statIssuedInstType_0::SimdFloatReduceAdd            0      0.00%     79.74% # Number of instructions issued per FU type, per thread (Count)
system.cpu.statIssuedInstType_0::SimdFloatReduceCmp            0      0.00%     79.74% # Number of instructions issued per FU type, per thread (Count)
system.cpu.statIssuedInstType_0::SimdAes            0      0.00%     79.74% # Number of instructions issued per FU type, per thread (Count)
system.cpu.statIssuedInstType_0::SimdAesMix            0      0.00%     79.74% # Number of instructions issued per FU type, per thread (Count)
system.cpu.statIssuedInstType_0::SimdSha1Hash            0      0.00%     79.74% # Number of instructions issued per FU type, per thread (Count)
system.cpu.statIssuedInstType_0::SimdSha1Hash2            0      0.00%     79.74% # Number of instructions issued per FU type, per thread (Count)
system.cpu.statIssuedInstType_0::SimdSha256Hash            0      0.00%     79.74% # Number of instructions issued per FU type, per thread (Count)
system.cpu.statIssuedInstType_0::SimdSha256Hash2            0      0.00%     79.74% # Number of instructions issued per FU type, per thread (Count)
system.cpu.statIssuedInstType_0::SimdShaSigma2            0      0.00%     79.74% # Number of instructions issued per FU type, per thread (Count)
system.cpu.statIssuedInstType_0::SimdShaSigma3            0      0.00%     79.74% # Number of instructions issued per FU type, per thread (Count)
system.cpu.statIssuedInstType_0::SimdPredAlu            0      0.00%     79.74% # Number of instructions issued per FU type, per thread (Count)
system.cpu.statIssuedInstType_0::Matrix             0      0.00%     79.74% # Number of instructions issued per FU type, per thread (Count)
system.cpu.statIssuedInstType_0::MatrixMov            0      0.00%     79.74% # Number of instructions issued per FU type, per thread (Count)
system.cpu.statIssuedInstType_0::MatrixOP            0      0.00%     79.74% # Number of instructions issued per FU type, per thread (Count)
system.cpu.statIssuedInstType_0::MemRead        86196     11.39%     91.13% # Number of instructions issued per FU type, per thread (Count)
system.cpu.statIssuedInstType_0::MemWrite        52664      6.96%     98.09% # Number of instructions issued per FU type, per thread (Count)
system.cpu.statIssuedInstType_0::FloatMemRead         7383      0.98%     99.07% # Number of instructions issued per FU type, per thread (Count)
system.cpu.statIssuedInstType_0::FloatMemWrite         7042      0.93%    100.00% # Number of instructions issued per FU type, per thread (Count)
system.cpu.statIssuedInstType_0::IprAccess            0      0.00%    100.00% # Number of instructions issued per FU type, per thread (Count)
system.cpu.statIssuedInstType_0::InstPrefetch            0      0.00%    100.00% # Number of instructions issued per FU type, per thread (Count)
system.cpu.statIssuedInstType_0::VectorUnitStrideLoad            0      0.00%    100.00% # Number of instructions issued per FU type, per thread (Count)
system.cpu.statIssuedInstType_0::VectorUnitStrideStore            0      0.00%    100.00% # Number of instructions issued per FU type, per thread (Count)
system.cpu.statIssuedInstType_0::VectorUnitStrideMaskLoad            0      0.00%    100.00% # Number of instructions issued per FU type, per thread (Count)
system.cpu.statIssuedInstType_0::VectorUnitStrideMaskStore            0      0.00%    100.00% # Number of instructions issued per FU type, per thread (Count)
system.cpu.statIssuedInstType_0::VectorStridedLoad            0      0.00%    100.00% # Number of instructions issued per FU type, per thread (Count)
system.cpu.statIssuedInstType_0::VectorStridedStore            0      0.00%    100.00% # Number of instructions issued per FU type, per thread (Count)
system.cpu.statIssuedInstType_0::VectorIndexedLoad            0      0.00%    100.00% # Number of instructions issued per FU type, per thread (Count)
system.cpu.statIssuedInstType_0::VectorIndexedStore            0      0.00%    100.00% # Number of instructions issued per FU type, per thread (Count)
system.cpu.statIssuedInstType_0::VectorUnitStrideFaultOnlyFirstLoad            0      0.00%    100.00% # Number of instructions issued per FU type, per thread (Count)
system.cpu.statIssuedInstType_0::VectorWholeRegisterLoad            0      0.00%    100.00% # Number of instructions issued per FU type, per thread (Count)
system.cpu.statIssuedInstType_0::VectorWholeRegisterStore            0      0.00%    100.00% # Number of instructions issued per FU type, per thread (Count)
system.cpu.statIssuedInstType_0::VectorIntegerArith            0      0.00%    100.00% # Number of instructions issued per FU type, per thread (Count)
system.cpu.statIssuedInstType_0::VectorFloatArith            0      0.00%    100.00% # Number of instructions issued per FU type, per thread (Count)
system.cpu.statIssuedInstType_0::VectorFloatConvert            0      0.00%    100.00% # Number of instructions issued per FU type, per thread (Count)
system.cpu.statIssuedInstType_0::VectorIntegerReduce            0      0.00%    100.00% # Number of instructions issued per FU type, per thread (Count)
system.cpu.statIssuedInstType_0::VectorFloatReduce            0      0.00%    100.00% # Number of instructions issued per FU type, per thread (Count)
system.cpu.statIssuedInstType_0::VectorMisc            0      0.00%    100.00% # Number of instructions issued per FU type, per thread (Count)
system.cpu.statIssuedInstType_0::VectorIntegerExtension            0      0.00%    100.00% # Number of instructions issued per FU type, per thread (Count)
system.cpu.statIssuedInstType_0::VectorConfig            0      0.00%    100.00% # Number of instructions issued per FU type, per thread (Count)
system.cpu.statIssuedInstType_0::total         756719                       # Number of instructions issued per FU type, per thread (Count)
system.cpu.issueRate                         1.553366                       # Inst issue rate ((Count/Cycle))
system.cpu.fuBusy                               10017                       # FU busy when requested (Count)
system.cpu.fuBusyRate                        0.013237                       # FU busy rate (busy events/executed inst) ((Count/Count))
system.cpu.intInstQueueReads                  1817841                       # Number of integer instruction queue reads (Count)
system.cpu.intInstQueueWrites                  881353                       # Number of integer instruction queue writes (Count)
system.cpu.intInstQueueWakeupAccesses          704819                       # Number of integer instruction queue wakeup accesses (Count)
system.cpu.fpInstQueueReads                     84749                       # Number of floating instruction queue reads (Count)
system.cpu.fpInstQueueWrites                    50619                       # Number of floating instruction queue writes (Count)
system.cpu.fpInstQueueWakeupAccesses            41330                       # Number of floating instruction queue wakeup accesses (Count)
system.cpu.vecInstQueueReads                        0                       # Number of vector instruction queue reads (Count)
system.cpu.vecInstQueueWrites                       0                       # Number of vector instruction queue writes (Count)
system.cpu.vecInstQueueWakeupAccesses               0                       # Number of vector instruction queue wakeup accesses (Count)
system.cpu.intAluAccesses                      711358                       # Number of integer alu accesses (Count)
system.cpu.fpAluAccesses                        42638                       # Number of floating point alu accesses (Count)
system.cpu.vecAluAccesses                           0                       # Number of vector alu accesses (Count)
system.cpu.numSquashedInsts                      6561                       # Number of squashed instructions skipped in execute (Count)
system.cpu.numSwp                                   0                       # Number of swp insts executed (Count)
system.cpu.timesIdled                             969                       # Number of times that the entire CPU went into an idle state and unscheduled itself (Count)
system.cpu.idleCycles                          108654                       # Total number of cycles that the CPU has spent unscheduled due to idling (Cycle)
system.cpu.MemDepUnit__0.insertedLoads          97201                       # Number of loads inserted to the mem dependence unit. (Count)
system.cpu.MemDepUnit__0.insertedStores         62381                       # Number of stores inserted to the mem dependence unit. (Count)
system.cpu.MemDepUnit__0.conflictingLoads         5681                       # Number of conflicting loads. (Count)
system.cpu.MemDepUnit__0.conflictingStores         3587                       # Number of conflicting stores. (Count)
system.cpu.MemDepUnit__1.insertedLoads              0                       # Number of loads inserted to the mem dependence unit. (Count)
system.cpu.MemDepUnit__1.insertedStores             0                       # Number of stores inserted to the mem dependence unit. (Count)
system.cpu.MemDepUnit__1.conflictingLoads            0                       # Number of conflicting loads. (Count)
system.cpu.MemDepUnit__1.conflictingStores            0                       # Number of conflicting stores. (Count)
system.cpu.MemDepUnit__2.insertedLoads              0                       # Number of loads inserted to the mem dependence unit. (Count)
system.cpu.MemDepUnit__2.insertedStores             0                       # Number of stores inserted to the mem dependence unit. (Count)
system.cpu.MemDepUnit__2.conflictingLoads            0                       # Number of conflicting loads. (Count)
system.cpu.MemDepUnit__2.conflictingStores            0                       # Number of conflicting stores. (Count)
system.cpu.MemDepUnit__3.insertedLoads              0                       # Number of loads inserted to the mem dependence unit. (Count)
system.cpu.MemDepUnit__3.insertedStores             0                       # Number of stores inserted to the mem dependence unit. (Count)
system.cpu.MemDepUnit__3.conflictingLoads            0                       # Number of conflicting loads. (Count)
system.cpu.MemDepUnit__3.conflictingStores            0                       # Number of conflicting stores. (Count)
system.cpu.branchPred.lookups                   90691                       # Number of BP lookups (Count)
system.cpu.branchPred.condPredicted             65345                       # Number of conditional branches predicted (Count)
system.cpu.branchPred.condIncorrect              4016                       # Number of conditional branches incorrect (Count)
system.cpu.branchPred.BTBLookups                41883                       # Number of BTB lookups (Count)
system.cpu.branchPred.BTBUpdates                 2961                       # Number of BTB updates (Count)
system.cpu.branchPred.BTBHits                   38920                       # Number of BTB hits (Count)
system.cpu.branchPred.BTBHitRatio            0.929255                       # BTB Hit Ratio (Ratio)
system.cpu.branchPred.RASUsed                    7308                       # Number of times the RAS was used to get a target. (Count)
system.cpu.branchPred.RASIncorrect                  0                       # Number of incorrect RAS predictions. (Count)
system.cpu.branchPred.indirectLookups            4511                       # Number of indirect predictor lookups. (Count)
system.cpu.branchPred.indirectHits               3189                       # Number of indirect target hits. (Count)
system.cpu.branchPred.indirectMisses             1322                       # Number of indirect misses. (Count)
system.cpu.branchPred.indirectMispredicted          298                       # Number of mispredicted indirect branches. (Count)
system.cpu.commit.commitSquashedInsts          124151                       # The number of squashed insts skipped by commit (Count)
system.cpu.commit.commitNonSpecStalls              36                       # The number of times commit has been forced to stall to communicate backwards (Count)
system.cpu.commit.branchMispredicts              3452                       # The number of times a branch was mispredicted (Count)
system.cpu.commit.numCommittedDist::samples       360318                       # Number of insts commited each cycle (Count)
system.cpu.commit.numCommittedDist::mean     1.829381                       # Number of insts commited each cycle (Count)
system.cpu.commit.numCommittedDist::stdev     2.745109                       # Number of insts commited each cycle (Count)
system.cpu.commit.numCommittedDist::underflows            0      0.00%      0.00% # Number of insts commited each cycle (Count)
system.cpu.commit.numCommittedDist::0          201767     56.00%     56.00% # Number of insts commited each cycle (Count)
system.cpu.commit.numCommittedDist::1           35142      9.75%     65.75% # Number of insts commited each cycle (Count)
system.cpu.commit.numCommittedDist::2           21515      5.97%     71.72% # Number of insts commited each cycle (Count)
system.cpu.commit.numCommittedDist::3           29545      8.20%     79.92% # Number of insts commited each cycle (Count)
system.cpu.commit.numCommittedDist::4           11575      3.21%     83.13% # Number of insts commited each cycle (Count)
system.cpu.commit.numCommittedDist::5            8328      2.31%     85.44% # Number of insts commited each cycle (Count)
system.cpu.commit.numCommittedDist::6            5678      1.58%     87.02% # Number of insts commited each cycle (Count)
system.cpu.commit.numCommittedDist::7            3800      1.05%     88.07% # Number of insts commited each cycle (Count)
system.cpu.commit.numCommittedDist::8           42968     11.93%    100.00% # Number of insts commited each cycle (Count)
system.cpu.commit.numCommittedDist::overflows            0      0.00%    100.00% # Number of insts commited each cycle (Count)
system.cpu.commit.numCommittedDist::min_value            0                       # Number of insts commited each cycle (Count)
system.cpu.commit.numCommittedDist::max_value            8                       # Number of insts commited each cycle (Count)
system.cpu.commit.numCommittedDist::total       360318                       # Number of insts commited each cycle (Count)
system.cpu.commit.amos                              0                       # Number of atomic instructions committed (Count)
system.cpu.commit.membars                          24                       # Number of memory barriers committed (Count)
system.cpu.commit.functionCalls                  6064                       # Number of function calls committed. (Count)
system.cpu.commit.committedInstType_0::No_OpClass        10600      1.61%      1.61% # Class of committed instruction (Count)
system.cpu.commit.committedInstType_0::IntAlu       486521     73.81%     75.42% # Class of committed instruction (Count)
system.cpu.commit.committedInstType_0::IntMult         1790      0.27%     75.69% # Class of committed instruction (Count)
system.cpu.commit.committedInstType_0::IntDiv         3192      0.48%     76.17% # Class of committed instruction (Count)
system.cpu.commit.committedInstType_0::FloatAdd         1926      0.29%     76.47% # Class of committed instruction (Count)
system.cpu.commit.committedInstType_0::FloatCmp            0      0.00%     76.47% # Class of committed instruction (Count)
system.cpu.commit.committedInstType_0::FloatCvt            0      0.00%     76.47% # Class of committed instruction (Count)
system.cpu.commit.committedInstType_0::FloatMult            0      0.00%     76.47% # Class of committed instruction (Count)
system.cpu.commit.committedInstType_0::FloatMultAcc            0      0.00%     76.47% # Class of committed instruction (Count)
system.cpu.commit.committedInstType_0::FloatDiv            0      0.00%     76.47% # Class of committed instruction (Count)
system.cpu.commit.committedInstType_0::FloatMisc            0      0.00%     76.47% # Class of committed instruction (Count)
system.cpu.commit.committedInstType_0::FloatSqrt            0      0.00%     76.47% # Class of committed instruction (Count)
system.cpu.commit.committedInstType_0::SimdAdd          394      0.06%     76.53% # Class of committed instruction (Count)
system.cpu.commit.committedInstType_0::SimdAddAcc            0      0.00%     76.53% # Class of committed instruction (Count)
system.cpu.commit.committedInstType_0::SimdAlu         4449      0.67%     77.20% # Class of committed instruction (Count)
system.cpu.commit.committedInstType_0::SimdCmp            0      0.00%     77.20% # Class of committed instruction (Count)
system.cpu.commit.committedInstType_0::SimdCvt         6014      0.91%     78.11% # Class of committed instruction (Count)
system.cpu.commit.committedInstType_0::SimdMisc         7847      1.19%     79.30% # Class of committed instruction (Count)
system.cpu.commit.committedInstType_0::SimdMult            0      0.00%     79.30% # Class of committed instruction (Count)
system.cpu.commit.committedInstType_0::SimdMultAcc            0      0.00%     79.30% # Class of committed instruction (Count)
system.cpu.commit.committedInstType_0::SimdMatMultAcc            0      0.00%     79.30% # Class of committed instruction (Count)
system.cpu.commit.committedInstType_0::SimdShift          229      0.03%     79.34% # Class of committed instruction (Count)
system.cpu.commit.committedInstType_0::SimdShiftAcc            0      0.00%     79.34% # Class of committed instruction (Count)
system.cpu.commit.committedInstType_0::SimdDiv            0      0.00%     79.34% # Class of committed instruction (Count)
system.cpu.commit.committedInstType_0::SimdSqrt            0      0.00%     79.34% # Class of committed instruction (Count)
system.cpu.commit.committedInstType_0::SimdFloatAdd            0      0.00%     79.34% # Class of committed instruction (Count)
system.cpu.commit.committedInstType_0::SimdFloatAlu            0      0.00%     79.34% # Class of committed instruction (Count)
system.cpu.commit.committedInstType_0::SimdFloatCmp            0      0.00%     79.34% # Class of committed instruction (Count)
system.cpu.commit.committedInstType_0::SimdFloatCvt            0      0.00%     79.34% # Class of committed instruction (Count)
system.cpu.commit.committedInstType_0::SimdFloatDiv            0      0.00%     79.34% # Class of committed instruction (Count)
system.cpu.commit.committedInstType_0::SimdFloatMisc            0      0.00%     79.34% # Class of committed instruction (Count)
system.cpu.commit.committedInstType_0::SimdFloatMult            0      0.00%     79.34% # Class of committed instruction (Count)
system.cpu.commit.committedInstType_0::SimdFloatMultAcc            0      0.00%     79.34% # Class of committed instruction (Count)
system.cpu.commit.committedInstType_0::SimdFloatMatMultAcc            0      0.00%     79.34% # Class of committed instruction (Count)
system.cpu.commit.committedInstType_0::SimdFloatSqrt            0      0.00%     79.34% # Class of committed instruction (Count)
system.cpu.commit.committedInstType_0::SimdReduceAdd            0      0.00%     79.34% # Class of committed instruction (Count)
system.cpu.commit.committedInstType_0::SimdReduceAlu            0      0.00%     79.34% # Class of committed instruction (Count)
system.cpu.commit.committedInstType_0::SimdReduceCmp            0      0.00%     79.34% # Class of committed instruction (Count)
system.cpu.commit.committedInstType_0::SimdFloatReduceAdd            0      0.00%     79.34% # Class of committed instruction (Count)
system.cpu.commit.committedInstType_0::SimdFloatReduceCmp            0      0.00%     79.34% # Class of committed instruction (Count)
system.cpu.commit.committedInstType_0::SimdAes            0      0.00%     79.34% # Class of committed instruction (Count)
system.cpu.commit.committedInstType_0::SimdAesMix            0      0.00%     79.34% # Class of committed instruction (Count)
system.cpu.commit.committedInstType_0::SimdSha1Hash            0      0.00%     79.34% # Class of committed instruction (Count)
system.cpu.commit.committedInstType_0::SimdSha1Hash2            0      0.00%     79.34% # Class of committed instruction (Count)
system.cpu.commit.committedInstType_0::SimdSha256Hash            0      0.00%     79.34% # Class of committed instruction (Count)
system.cpu.commit.committedInstType_0::SimdSha256Hash2            0      0.00%     79.34% # Class of committed instruction (Count)
system.cpu.commit.committedInstType_0::SimdShaSigma2            0      0.00%     79.34% # Class of committed instruction (Count)
system.cpu.commit.committedInstType_0::SimdShaSigma3            0      0.00%     79.34% # Class of committed instruction (Count)
system.cpu.commit.committedInstType_0::SimdPredAlu            0      0.00%     79.34% # Class of committed instruction (Count)
system.cpu.commit.committedInstType_0::Matrix            0      0.00%     79.34% # Class of committed instruction (Count)
system.cpu.commit.committedInstType_0::MatrixMov            0      0.00%     79.34% # Class of committed instruction (Count)
system.cpu.commit.committedInstType_0::MatrixOP            0      0.00%     79.34% # Class of committed instruction (Count)
system.cpu.commit.committedInstType_0::MemRead        75382     11.44%     90.77% # Class of committed instruction (Count)
system.cpu.commit.committedInstType_0::MemWrite        47722      7.24%     98.01% # Class of committed instruction (Count)
system.cpu.commit.committedInstType_0::FloatMemRead         6364      0.97%     98.98% # Class of committed instruction (Count)
system.cpu.commit.committedInstType_0::FloatMemWrite         6729      1.02%    100.00% # Class of committed instruction (Count)
system.cpu.commit.committedInstType_0::IprAccess            0      0.00%    100.00% # Class of committed instruction (Count)
system.cpu.commit.committedInstType_0::InstPrefetch            0      0.00%    100.00% # Class of committed instruction (Count)
system.cpu.commit.committedInstType_0::VectorUnitStrideLoad            0      0.00%    100.00% # Class of committed instruction (Count)
system.cpu.commit.committedInstType_0::VectorUnitStrideStore            0      0.00%    100.00% # Class of committed instruction (Count)
system.cpu.commit.committedInstType_0::VectorUnitStrideMaskLoad            0      0.00%    100.00% # Class of committed instruction (Count)
system.cpu.commit.committedInstType_0::VectorUnitStrideMaskStore            0      0.00%    100.00% # Class of committed instruction (Count)
system.cpu.commit.committedInstType_0::VectorStridedLoad            0      0.00%    100.00% # Class of committed instruction (Count)
system.cpu.commit.committedInstType_0::VectorStridedStore            0      0.00%    100.00% # Class of committed instruction (Count)
system.cpu.commit.committedInstType_0::VectorIndexedLoad            0      0.00%    100.00% # Class of committed instruction (Count)
system.cpu.commit.committedInstType_0::VectorIndexedStore            0      0.00%    100.00% # Class of committed instruction (Count)
system.cpu.commit.committedInstType_0::VectorUnitStrideFaultOnlyFirstLoad            0      0.00%    100.00% # Class of committed instruction (Count)
system.cpu.commit.committedInstType_0::VectorWholeRegisterLoad            0      0.00%    100.00% # Class of committed instruction (Count)
system.cpu.commit.committedInstType_0::VectorWholeRegisterStore            0      0.00%    100.00% # Class of committed instruction (Count)
system.cpu.commit.committedInstType_0::VectorIntegerArith            0      0.00%    100.00% # Class of committed instruction (Count)
system.cpu.commit.committedInstType_0::VectorFloatArith            0      0.00%    100.00% # Class of committed instruction (Count)
system.cpu.commit.committedInstType_0::VectorFloatConvert            0      0.00%    100.00% # Class of committed instruction (Count)
system.cpu.commit.committedInstType_0::VectorIntegerReduce            0      0.00%    100.00% # Class of committed instruction (Count)
system.cpu.commit.committedInstType_0::VectorFloatReduce            0      0.00%    100.00% # Class of committed instruction (Count)
system.cpu.commit.committedInstType_0::VectorMisc            0      0.00%    100.00% # Class of committed instruction (Count)
system.cpu.commit.committedInstType_0::VectorIntegerExtension            0      0.00%    100.00% # Class of committed instruction (Count)
system.cpu.commit.committedInstType_0::VectorConfig            0      0.00%    100.00% # Class of committed instruction (Count)
system.cpu.commit.committedInstType_0::total       659159                       # Class of committed instruction (Count)
system.cpu.commit.commitEligibleSamples         42968                       # number cycles where commit BW limit reached (Cycle)
system.cpu.commitStats0.numInsts               344524                       # Number of instructions committed (thread level) (Count)
system.cpu.commitStats0.numOps                 659159                       # Number of ops (including micro ops) committed (thread level) (Count)
system.cpu.commitStats0.numInstsNotNOP         344524                       # Number of instructions committed excluding NOPs or prefetches (Count)
system.cpu.commitStats0.numOpsNotNOP           659159                       # Number of Ops (including micro ops) Simulated (Count)
system.cpu.commitStats0.cpi                  1.413974                       # CPI: cycles per instruction (thread level) ((Cycle/Count))
system.cpu.commitStats0.ipc                  0.707227                       # IPC: instructions per cycle (thread level) ((Count/Cycle))
system.cpu.commitStats0.numMemRefs             136197                       # Number of memory references committed (Count)
system.cpu.commitStats0.numFpInsts              38387                       # Number of float instructions (Count)
system.cpu.commitStats0.numIntInsts            625937                       # Number of integer instructions (Count)
system.cpu.commitStats0.numLoadInsts            81746                       # Number of load instructions (Count)
system.cpu.commitStats0.numStoreInsts           54451                       # Number of store instructions (Count)
system.cpu.commitStats0.numVecInsts                 0                       # Number of vector instructions (Count)
system.cpu.commitStats0.committedInstType::No_OpClass        10600      1.61%      1.61% # Class of committed instruction. (Count)
system.cpu.commitStats0.committedInstType::IntAlu       486521     73.81%     75.42% # Class of committed instruction. (Count)
system.cpu.commitStats0.committedInstType::IntMult         1790      0.27%     75.69% # Class of committed instruction. (Count)
system.cpu.commitStats0.committedInstType::IntDiv         3192      0.48%     76.17% # Class of committed instruction. (Count)
system.cpu.commitStats0.committedInstType::FloatAdd         1926      0.29%     76.47% # Class of committed instruction. (Count)
system.cpu.commitStats0.committedInstType::FloatCmp            0      0.00%     76.47% # Class of committed instruction. (Count)
system.cpu.commitStats0.committedInstType::FloatCvt            0      0.00%     76.47% # Class of committed instruction. (Count)
system.cpu.commitStats0.committedInstType::FloatMult            0      0.00%     76.47% # Class of committed instruction. (Count)
system.cpu.commitStats0.committedInstType::FloatMultAcc            0      0.00%     76.47% # Class of committed instruction. (Count)
system.cpu.commitStats0.committedInstType::FloatDiv            0      0.00%     76.47% # Class of committed instruction. (Count)
system.cpu.commitStats0.committedInstType::FloatMisc            0      0.00%     76.47% # Class of committed instruction. (Count)
system.cpu.commitStats0.committedInstType::FloatSqrt            0      0.00%     76.47% # Class of committed instruction. (Count)
system.cpu.commitStats0.committedInstType::SimdAdd          394      0.06%     76.53% # Class of committed instruction. (Count)
system.cpu.commitStats0.committedInstType::SimdAddAcc            0      0.00%     76.53% # Class of committed instruction. (Count)
system.cpu.commitStats0.committedInstType::SimdAlu         4449      0.67%     77.20% # Class of committed instruction. (Count)
system.cpu.commitStats0.committedInstType::SimdCmp            0      0.00%     77.20% # Class of committed instruction. (Count)
system.cpu.commitStats0.committedInstType::SimdCvt         6014      0.91%     78.11% # Class of committed instruction. (Count)
system.cpu.commitStats0.committedInstType::SimdMisc         7847      1.19%     79.30% # Class of committed instruction. (Count)
system.cpu.commitStats0.committedInstType::SimdMult            0      0.00%     79.30% # Class of committed instruction. (Count)
system.cpu.commitStats0.committedInstType::SimdMultAcc            0      0.00%     79.30% # Class of committed instruction. (Count)
system.cpu.commitStats0.committedInstType::SimdMatMultAcc            0      0.00%     79.30% # Class of committed instruction. (Count)
system.cpu.commitStats0.committedInstType::SimdShift          229      0.03%     79.34% # Class of committed instruction. (Count)
system.cpu.commitStats0.committedInstType::SimdShiftAcc            0      0.00%     79.34% # Class of committed instruction. (Count)
system.cpu.commitStats0.committedInstType::SimdDiv            0      0.00%     79.34% # Class of committed instruction. (Count)
system.cpu.commitStats0.committedInstType::SimdSqrt            0      0.00%     79.34% # Class of committed instruction. (Count)
system.cpu.commitStats0.committedInstType::SimdFloatAdd            0      0.00%     79.34% # Class of committed instruction. (Count)
system.cpu.commitStats0.committedInstType::SimdFloatAlu            0      0.00%     79.34% # Class of committed instruction. (Count)
system.cpu.commitStats0.committedInstType::SimdFloatCmp            0      0.00%     79.34% # Class of committed instruction. (Count)
system.cpu.commitStats0.committedInstType::SimdFloatCvt            0      0.00%     79.34% # Class of committed instruction. (Count)
system.cpu.commitStats0.committedInstType::SimdFloatDiv            0      0.00%     79.34% # Class of committed instruction. (Count)
system.cpu.commitStats0.committedInstType::SimdFloatMisc            0      0.00%     79.34% # Class of committed instruction. (Count)
system.cpu.commitStats0.committedInstType::SimdFloatMult            0      0.00%     79.34% # Class of committed instruction. (Count)
system.cpu.commitStats0.committedInstType::SimdFloatMultAcc            0      0.00%     79.34% # Class of committed instruction. (Count)
system.cpu.commitStats0.committedInstType::SimdFloatMatMultAcc            0      0.00%     79.34% # Class of committed instruction. (Count)
system.cpu.commitStats0.committedInstType::SimdFloatSqrt            0      0.00%     79.34% # Class of committed instruction. (Count)
system.cpu.commitStats0.committedInstType::SimdReduceAdd            0      0.00%     79.34% # Class of committed instruction. (Count)
system.cpu.commitStats0.committedInstType::SimdReduceAlu            0      0.00%     79.34% # Class of committed instruction. (Count)
system.cpu.commitStats0.committedInstType::SimdReduceCmp            0      0.00%     79.34% # Class of committed instruction. (Count)
system.cpu.commitStats0.committedInstType::SimdFloatReduceAdd            0      0.00%     79.34% # Class of committed instruction. (Count)
system.cpu.commitStats0.committedInstType::SimdFloatReduceCmp            0      0.00%     79.34% # Class of committed instruction. (Count)
system.cpu.commitStats0.committedInstType::SimdAes            0      0.00%     79.34% # Class of committed instruction. (Count)
system.cpu.commitStats0.committedInstType::SimdAesMix            0      0.00%     79.34% # Class of committed instruction. (Count)
system.cpu.commitStats0.committedInstType::SimdSha1Hash            0      0.00%     79.34% # Class of committed instruction. (Count)
system.cpu.commitStats0.committedInstType::SimdSha1Hash2            0      0.00%     79.34% # Class of committed instruction. (Count)
system.cpu.commitStats0.committedInstType::SimdSha256Hash            0      0.00%     79.34% # Class of committed instruction. (Count)
system.cpu.commitStats0.committedInstType::SimdSha256Hash2            0      0.00%     79.34% # Class of committed instruction. (Count)
system.cpu.commitStats0.committedInstType::SimdShaSigma2            0      0.00%     79.34% # Class of committed instruction. (Count)
system.cpu.commitStats0.committedInstType::SimdShaSigma3            0      0.00%     79.34% # Class of committed instruction. (Count)
system.cpu.commitStats0.committedInstType::SimdPredAlu            0      0.00%     79.34% # Class of committed instruction. (Count)
system.cpu.commitStats0.committedInstType::Matrix            0      0.00%     79.34% # Class of committed instruction. (Count)
system.cpu.commitStats0.committedInstType::MatrixMov            0      0.00%     79.34% # Class of committed instruction. (Count)
system.cpu.commitStats0.committedInstType::MatrixOP            0      0.00%     79.34% # Class of committed instruction. (Count)
system.cpu.commitStats0.committedInstType::MemRead        75382     11.44%     90.77% # Class of committed instruction. (Count)
system.cpu.commitStats0.committedInstType::MemWrite        47722      7.24%     98.01% # Class of committed instruction. (Count)
system.cpu.commitStats0.committedInstType::FloatMemRead         6364      0.97%     98.98% # Class of committed instruction. (Count)
system.cpu.commitStats0.committedInstType::FloatMemWrite         6729      1.02%    100.00% # Class of committed instruction. (Count)
system.cpu.commitStats0.committedInstType::IprAccess            0      0.00%    100.00% # Class of committed instruction. (Count)
system.cpu.commitStats0.committedInstType::InstPrefetch            0      0.00%    100.00% # Class of committed instruction. (Count)
system.cpu.commitStats0.committedInstType::VectorUnitStrideLoad            0      0.00%    100.00% # Class of committed instruction. (Count)
system.cpu.commitStats0.committedInstType::VectorUnitStrideStore            0      0.00%    100.00% # Class of committed instruction. (Count)
system.cpu.commitStats0.committedInstType::VectorUnitStrideMaskLoad            0      0.00%    100.00% # Class of committed instruction. (Count)
system.cpu.commitStats0.committedInstType::VectorUnitStrideMaskStore            0      0.00%    100.00% # Class of committed instruction. (Count)
system.cpu.commitStats0.committedInstType::VectorStridedLoad            0      0.00%    100.00% # Class of committed instruction. (Count)
system.cpu.commitStats0.committedInstType::VectorStridedStore            0      0.00%    100.00% # Class of committed instruction. (Count)
system.cpu.commitStats0.committedInstType::VectorIndexedLoad            0      0.00%    100.00% # Class of committed instruction. (Count)
system.cpu.commitStats0.committedInstType::VectorIndexedStore            0      0.00%    100.00% # Class of committed instruction. (Count)
system.cpu.commitStats0.committedInstType::VectorUnitStrideFaultOnlyFirstLoad            0      0.00%    100.00% # Class of committed instruction. (Count)
system.cpu.commitStats0.committedInstType::VectorWholeRegisterLoad            0      0.00%    100.00% # Class of committed instruction. (Count)
system.cpu.commitStats0.committedInstType::VectorWholeRegisterStore            0      0.00%    100.00% # Class of committed instruction. (Count)
system.cpu.commitStats0.committedInstType::VectorIntegerArith            0      0.00%    100.00% # Class of committed instruction. (Count)
system.cpu.commitStats0.committedInstType::VectorFloatArith            0      0.00%    100.00% # Class of committed instruction. (Count)
system.cpu.commitStats0.committedInstType::VectorFloatConvert            0      0.00%    100.00% # Class of committed instruction. (Count)
system.cpu.commitStats0.committedInstType::VectorIntegerReduce            0      0.00%    100.00% # Class of committed instruction. (Count)
system.cpu.commitStats0.committedInstType::VectorFloatReduce            0      0.00%    100.00% # Class of committed instruction. (Count)
system.cpu.commitStats0.committedInstType::VectorMisc            0      0.00%    100.00% # Class of committed instruction. (Count)
system.cpu.commitStats0.committedInstType::VectorIntegerExtension            0      0.00%    100.00% # Class of committed instruction. (Count)
system.cpu.commitStats0.committedInstType::VectorConfig            0      0.00%    100.00% # Class of committed instruction. (Count)
system.cpu.commitStats0.committedInstType::total       659159                       # Class of committed instruction. (Count)
system.cpu.commitStats0.committedControl::IsControl        66224                       # Class of control type instructions committed (Count)
system.cpu.commitStats0.committedControl::IsDirectControl        56728                       # Class of control type instructions committed (Count)
system.cpu.commitStats0.committedControl::IsIndirectControl         9456                       # Class of control type instructions committed (Count)
system.cpu.commitStats0.committedControl::IsCondControl        45741                       # Class of control type instructions committed (Count)
system.cpu.commitStats0.committedControl::IsUncondControl        20443                       # Class of control type instructions committed (Count)
system.cpu.commitStats0.committedControl::IsCall         6064                       # Class of control type instructions committed (Count)
system.cpu.commitStats0.committedControl::IsReturn         6059                       # Class of control type instructions committed (Count)
system.cpu.dcache.demandHits::cpu.data         129125                       # number of demand (read+write) hits (Count)
system.cpu.dcache.demandHits::total            129125                       # number of demand (read+write) hits (Count)
system.cpu.dcache.overallHits::cpu.data        129125                       # number of overall hits (Count)
system.cpu.dcache.overallHits::total           129125                       # number of overall hits (Count)
system.cpu.dcache.demandMisses::cpu.data         3307                       # number of demand (read+write) misses (Count)
system.cpu.dcache.demandMisses::total            3307                       # number of demand (read+write) misses (Count)
system.cpu.dcache.overallMisses::cpu.data         3307                       # number of overall misses (Count)
system.cpu.dcache.overallMisses::total           3307                       # number of overall misses (Count)
system.cpu.dcache.demandMissLatency::cpu.data    243704499                       # number of demand (read+write) miss ticks (Tick)
system.cpu.dcache.demandMissLatency::total    243704499                       # number of demand (read+write) miss ticks (Tick)
system.cpu.dcache.overallMissLatency::cpu.data    243704499                       # number of overall miss ticks (Tick)
system.cpu.dcache.overallMissLatency::total    243704499                       # number of overall miss ticks (Tick)
system.cpu.dcache.demandAccesses::cpu.data       132432                       # number of demand (read+write) accesses (Count)
system.cpu.dcache.demandAccesses::total        132432                       # number of demand (read+write) accesses (Count)
system.cpu.dcache.overallAccesses::cpu.data       132432                       # number of overall (read+write) accesses (Count)
system.cpu.dcache.overallAccesses::total       132432                       # number of overall (read+write) accesses (Count)
system.cpu.dcache.demandMissRate::cpu.data     0.024971                       # miss rate for demand accesses (Ratio)
system.cpu.dcache.demandMissRate::total      0.024971                       # miss rate for demand accesses (Ratio)
system.cpu.dcache.overallMissRate::cpu.data     0.024971                       # miss rate for overall accesses (Ratio)
system.cpu.dcache.overallMissRate::total     0.024971                       # miss rate for overall accesses (Ratio)
system.cpu.dcache.demandAvgMissLatency::cpu.data 73693.528576                       # average overall miss latency in ticks ((Tick/Count))
system.cpu.dcache.demandAvgMissLatency::total 73693.528576                       # average overall miss latency in ticks ((Tick/Count))
system.cpu.dcache.overallAvgMissLatency::cpu.data 73693.528576                       # average overall miss latency ((Tick/Count))
system.cpu.dcache.overallAvgMissLatency::total 73693.528576                       # average overall miss latency ((Tick/Count))
system.cpu.dcache.blockedCycles::no_mshrs         4234                       # number of cycles access was blocked (Cycle)
system.cpu.dcache.blockedCycles::no_targets            0                       # number of cycles access was blocked (Cycle)
system.cpu.dcache.blockedCauses::no_mshrs          113                       # number of times access was blocked (Count)
system.cpu.dcache.blockedCauses::no_targets            0                       # number of times access was blocked (Count)
system.cpu.dcache.avgBlocked::no_mshrs      37.469027                       # average number of cycles each access was blocked ((Cycle/Count))
system.cpu.dcache.avgBlocked::no_targets          nan                       # average number of cycles each access was blocked ((Cycle/Count))
system.cpu.dcache.writebacks::writebacks          289                       # number of writebacks (Count)
system.cpu.dcache.writebacks::total               289                       # number of writebacks (Count)
system.cpu.dcache.demandMshrHits::cpu.data         1775                       # number of demand (read+write) MSHR hits (Count)
system.cpu.dcache.demandMshrHits::total          1775                       # number of demand (read+write) MSHR hits (Count)
system.cpu.dcache.overallMshrHits::cpu.data         1775                       # number of overall MSHR hits (Count)
system.cpu.dcache.overallMshrHits::total         1775                       # number of overall MSHR hits (Count)
system.cpu.dcache.demandMshrMisses::cpu.data         1532                       # number of demand (read+write) MSHR misses (Count)
system.cpu.dcache.demandMshrMisses::total         1532                       # number of demand (read+write) MSHR misses (Count)
system.cpu.dcache.overallMshrMisses::cpu.data         1532                       # number of overall MSHR misses (Count)
system.cpu.dcache.overallMshrMisses::total         1532                       # number of overall MSHR misses (Count)
system.cpu.dcache.demandMshrMissLatency::cpu.data    114546499                       # number of demand (read+write) MSHR miss ticks (Tick)
system.cpu.dcache.demandMshrMissLatency::total    114546499                       # number of demand (read+write) MSHR miss ticks (Tick)
system.cpu.dcache.overallMshrMissLatency::cpu.data    114546499                       # number of overall MSHR miss ticks (Tick)
system.cpu.dcache.overallMshrMissLatency::total    114546499                       # number of overall MSHR miss ticks (Tick)
system.cpu.dcache.demandMshrMissRate::cpu.data     0.011568                       # mshr miss ratio for demand accesses (Ratio)
system.cpu.dcache.demandMshrMissRate::total     0.011568                       # mshr miss ratio for demand accesses (Ratio)
system.cpu.dcache.overallMshrMissRate::cpu.data     0.011568                       # mshr miss ratio for overall accesses (Ratio)
system.cpu.dcache.overallMshrMissRate::total     0.011568                       # mshr miss ratio for overall accesses (Ratio)
system.cpu.dcache.demandAvgMshrMissLatency::cpu.data 74769.255222                       # average overall mshr miss latency ((Tick/Count))
system.cpu.dcache.demandAvgMshrMissLatency::total 74769.255222                       # average overall mshr miss latency ((Tick/Count))
system.cpu.dcache.overallAvgMshrMissLatency::cpu.data 74769.255222                       # average overall mshr miss latency ((Tick/Count))
system.cpu.dcache.overallAvgMshrMissLatency::total 74769.255222                       # average overall mshr miss latency ((Tick/Count))
system.cpu.dcache.replacements                    573                       # number of replacements (Count)
system.cpu.dcache.LockedRMWReadReq.hits::cpu.data           11                       # number of LockedRMWReadReq hits (Count)
system.cpu.dcache.LockedRMWReadReq.hits::total           11                       # number of LockedRMWReadReq hits (Count)
system.cpu.dcache.LockedRMWReadReq.misses::cpu.data            1                       # number of LockedRMWReadReq misses (Count)
system.cpu.dcache.LockedRMWReadReq.misses::total            1                       # number of LockedRMWReadReq misses (Count)
system.cpu.dcache.LockedRMWReadReq.missLatency::cpu.data        86000                       # number of LockedRMWReadReq miss ticks (Tick)
system.cpu.dcache.LockedRMWReadReq.missLatency::total        86000                       # number of LockedRMWReadReq miss ticks (Tick)
system.cpu.dcache.LockedRMWReadReq.accesses::cpu.data           12                       # number of LockedRMWReadReq accesses(hits+misses) (Count)
system.cpu.dcache.LockedRMWReadReq.accesses::total           12                       # number of LockedRMWReadReq accesses(hits+misses) (Count)
system.cpu.dcache.LockedRMWReadReq.missRate::cpu.data     0.083333                       # miss rate for LockedRMWReadReq accesses (Ratio)
system.cpu.dcache.LockedRMWReadReq.missRate::total     0.083333                       # miss rate for LockedRMWReadReq accesses (Ratio)
system.cpu.dcache.LockedRMWReadReq.avgMissLatency::cpu.data        86000                       # average LockedRMWReadReq miss latency ((Tick/Count))
system.cpu.dcache.LockedRMWReadReq.avgMissLatency::total        86000                       # average LockedRMWReadReq miss latency ((Tick/Count))
system.cpu.dcache.LockedRMWReadReq.mshrMisses::cpu.data            1                       # number of LockedRMWReadReq MSHR misses (Count)
system.cpu.dcache.LockedRMWReadReq.mshrMisses::total            1                       # number of LockedRMWReadReq MSHR misses (Count)
system.cpu.dcache.LockedRMWReadReq.mshrMissLatency::cpu.data       215000                       # number of LockedRMWReadReq MSHR miss ticks (Tick)
system.cpu.dcache.LockedRMWReadReq.mshrMissLatency::total       215000                       # number of LockedRMWReadReq MSHR miss ticks (Tick)
system.cpu.dcache.LockedRMWReadReq.mshrMissRate::cpu.data     0.083333                       # mshr miss rate for LockedRMWReadReq accesses (Ratio)
system.cpu.dcache.LockedRMWReadReq.mshrMissRate::total     0.083333                       # mshr miss rate for LockedRMWReadReq accesses (Ratio)
system.cpu.dcache.LockedRMWReadReq.avgMshrMissLatency::cpu.data       215000                       # average LockedRMWReadReq mshr miss latency ((Tick/Count))
system.cpu.dcache.LockedRMWReadReq.avgMshrMissLatency::total       215000                       # average LockedRMWReadReq mshr miss latency ((Tick/Count))
system.cpu.dcache.LockedRMWWriteReq.hits::cpu.data           12                       # number of LockedRMWWriteReq hits (Count)
system.cpu.dcache.LockedRMWWriteReq.hits::total           12                       # number of LockedRMWWriteReq hits (Count)
system.cpu.dcache.LockedRMWWriteReq.accesses::cpu.data           12                       # number of LockedRMWWriteReq accesses(hits+misses) (Count)
system.cpu.dcache.LockedRMWWriteReq.accesses::total           12                       # number of LockedRMWWriteReq accesses(hits+misses) (Count)
system.cpu.dcache.ReadReq.hits::cpu.data        75029                       # number of ReadReq hits (Count)
system.cpu.dcache.ReadReq.hits::total           75029                       # number of ReadReq hits (Count)
system.cpu.dcache.ReadReq.misses::cpu.data         2963                       # number of ReadReq misses (Count)
system.cpu.dcache.ReadReq.misses::total          2963                       # number of ReadReq misses (Count)
system.cpu.dcache.ReadReq.missLatency::cpu.data    217371500                       # number of ReadReq miss ticks (Tick)
system.cpu.dcache.ReadReq.missLatency::total    217371500                       # number of ReadReq miss ticks (Tick)
system.cpu.dcache.ReadReq.accesses::cpu.data        77992                       # number of ReadReq accesses(hits+misses) (Count)
system.cpu.dcache.ReadReq.accesses::total        77992                       # number of ReadReq accesses(hits+misses) (Count)
system.cpu.dcache.ReadReq.missRate::cpu.data     0.037991                       # miss rate for ReadReq accesses (Ratio)
system.cpu.dcache.ReadReq.missRate::total     0.037991                       # miss rate for ReadReq accesses (Ratio)
system.cpu.dcache.ReadReq.avgMissLatency::cpu.data 73361.964225                       # average ReadReq miss latency ((Tick/Count))
system.cpu.dcache.ReadReq.avgMissLatency::total 73361.964225                       # average ReadReq miss latency ((Tick/Count))
system.cpu.dcache.ReadReq.mshrHits::cpu.data         1774                       # number of ReadReq MSHR hits (Count)
system.cpu.dcache.ReadReq.mshrHits::total         1774                       # number of ReadReq MSHR hits (Count)
system.cpu.dcache.ReadReq.mshrMisses::cpu.data         1189                       # number of ReadReq MSHR misses (Count)
system.cpu.dcache.ReadReq.mshrMisses::total         1189                       # number of ReadReq MSHR misses (Count)
system.cpu.dcache.ReadReq.mshrMissLatency::cpu.data     88567500                       # number of ReadReq MSHR miss ticks (Tick)
system.cpu.dcache.ReadReq.mshrMissLatency::total     88567500                       # number of ReadReq MSHR miss ticks (Tick)
system.cpu.dcache.ReadReq.mshrMissRate::cpu.data     0.015245                       # mshr miss rate for ReadReq accesses (Ratio)
system.cpu.dcache.ReadReq.mshrMissRate::total     0.015245                       # mshr miss rate for ReadReq accesses (Ratio)
system.cpu.dcache.ReadReq.avgMshrMissLatency::cpu.data 74489.066442                       # average ReadReq mshr miss latency ((Tick/Count))
system.cpu.dcache.ReadReq.avgMshrMissLatency::total 74489.066442                       # average ReadReq mshr miss latency ((Tick/Count))
system.cpu.dcache.WriteReq.hits::cpu.data        54096                       # number of WriteReq hits (Count)
system.cpu.dcache.WriteReq.hits::total          54096                       # number of WriteReq hits (Count)
system.cpu.dcache.WriteReq.misses::cpu.data          344                       # number of WriteReq misses (Count)
system.cpu.dcache.WriteReq.misses::total          344                       # number of WriteReq misses (Count)
system.cpu.dcache.WriteReq.missLatency::cpu.data     26332999                       # number of WriteReq miss ticks (Tick)
system.cpu.dcache.WriteReq.missLatency::total     26332999                       # number of WriteReq miss ticks (Tick)
system.cpu.dcache.WriteReq.accesses::cpu.data        54440                       # number of WriteReq accesses(hits+misses) (Count)
system.cpu.dcache.WriteReq.accesses::total        54440                       # number of WriteReq accesses(hits+misses) (Count)
system.cpu.dcache.WriteReq.missRate::cpu.data     0.006319                       # miss rate for WriteReq accesses (Ratio)
system.cpu.dcache.WriteReq.missRate::total     0.006319                       # miss rate for WriteReq accesses (Ratio)
system.cpu.dcache.WriteReq.avgMissLatency::cpu.data 76549.415698                       # average WriteReq miss latency ((Tick/Count))
system.cpu.dcache.WriteReq.avgMissLatency::total 76549.415698                       # average WriteReq miss latency ((Tick/Count))
system.cpu.dcache.WriteReq.mshrHits::cpu.data            1                       # number of WriteReq MSHR hits (Count)
system.cpu.dcache.WriteReq.mshrHits::total            1                       # number of WriteReq MSHR hits (Count)
system.cpu.dcache.WriteReq.mshrMisses::cpu.data          343                       # number of WriteReq MSHR misses (Count)
system.cpu.dcache.WriteReq.mshrMisses::total          343                       # number of WriteReq MSHR misses (Count)
system.cpu.dcache.WriteReq.mshrMissLatency::cpu.data     25978999                       # number of WriteReq MSHR miss ticks (Tick)
system.cpu.dcache.WriteReq.mshrMissLatency::total     25978999                       # number of WriteReq MSHR miss ticks (Tick)
system.cpu.dcache.WriteReq.mshrMissRate::cpu.data     0.006301                       # mshr miss rate for WriteReq accesses (Ratio)
system.cpu.dcache.WriteReq.mshrMissRate::total     0.006301                       # mshr miss rate for WriteReq accesses (Ratio)
system.cpu.dcache.WriteReq.avgMshrMissLatency::cpu.data 75740.521866                       # average WriteReq mshr miss latency ((Tick/Count))
system.cpu.dcache.WriteReq.avgMshrMissLatency::total 75740.521866                       # average WriteReq mshr miss latency ((Tick/Count))
system.cpu.dcache.power_state.pwrStateResidencyTicks::UNDEFINED    243573500                       # Cumulative time (in ticks) in various power states (Tick)
system.cpu.dcache.tags.tagsInUse           695.129933                       # Average ticks per tags in use ((Tick/Count))
system.cpu.dcache.tags.totalRefs               130681                       # Total number of references to valid blocks. (Count)
system.cpu.dcache.tags.sampledRefs               1533                       # Sample count of references to valid blocks. (Count)
system.cpu.dcache.tags.avgRefs              85.245271                       # Average number of references to valid blocks. ((Count/Count))
system.cpu.dcache.tags.warmupTick              179500                       # The tick when the warmup percentage was hit. (Tick)
system.cpu.dcache.tags.occupancies::cpu.data   695.129933                       # Average occupied blocks per tick, per requestor ((Count/Tick))
system.cpu.dcache.tags.avgOccs::cpu.data     0.678838                       # Average percentage of cache occupancy ((Ratio/Tick))
system.cpu.dcache.tags.avgOccs::total        0.678838                       # Average percentage of cache occupancy ((Ratio/Tick))
system.cpu.dcache.tags.occupanciesTaskId::1024          960                       # Occupied blocks per task id (Count)
system.cpu.dcache.tags.ageTaskId_1024::0           13                       # Occupied blocks per task id, per block age (Count)
system.cpu.dcache.tags.ageTaskId_1024::1          265                       # Occupied blocks per task id, per block age (Count)
system.cpu.dcache.tags.ageTaskId_1024::2          682                       # Occupied blocks per task id, per block age (Count)
system.cpu.dcache.tags.ratioOccsTaskId::1024     0.937500                       # Ratio of occupied blocks and all blocks, per task id (Ratio)
system.cpu.dcache.tags.tagAccesses             266445                       # Number of tag accesses (Count)
system.cpu.dcache.tags.dataAccesses            266445                       # Number of data accesses (Count)
system.cpu.dcache.tags.power_state.pwrStateResidencyTicks::UNDEFINED    243573500                       # Cumulative time (in ticks) in various power states (Tick)
system.cpu.decode.idleCycles                   106542                       # Number of cycles decode is idle (Cycle)
system.cpu.decode.blockedCycles                137934                       # Number of cycles decode is blocked (Cycle)
system.cpu.decode.runCycles                    122053                       # Number of cycles decode is running (Cycle)
system.cpu.decode.unblockCycles                  8034                       # Number of cycles decode is unblocking (Cycle)
system.cpu.decode.squashCycles                   3931                       # Number of cycles decode is squashing (Cycle)
system.cpu.decode.branchResolved                37870                       # Number of times decode resolved a branch (Count)
system.cpu.decode.branchMispred                   895                       # Number of times decode detected a branch misprediction (Count)
system.cpu.decode.decodedInsts                 833688                       # Number of instructions handled by decode (Count)
system.cpu.decode.squashedInsts                  5203                       # Number of squashed instructions handled by decode (Count)
system.cpu.dtb_walker_cache.blockedCycles::no_mshrs            0                       # number of cycles access was blocked (Cycle)
system.cpu.dtb_walker_cache.blockedCycles::no_targets            0                       # number of cycles access was blocked (Cycle)
system.cpu.dtb_walker_cache.blockedCauses::no_mshrs            0                       # number of times access was blocked (Count)
system.cpu.dtb_walker_cache.blockedCauses::no_targets            0                       # number of times access was blocked (Count)
system.cpu.dtb_walker_cache.avgBlocked::no_mshrs          nan                       # average number of cycles each access was blocked ((Cycle/Count))
system.cpu.dtb_walker_cache.avgBlocked::no_targets          nan                       # average number of cycles each access was blocked ((Cycle/Count))
system.cpu.dtb_walker_cache.replacements            0                       # number of replacements (Count)
system.cpu.dtb_walker_cache.power_state.pwrStateResidencyTicks::UNDEFINED    243573500                       # Cumulative time (in ticks) in various power states (Tick)
system.cpu.dtb_walker_cache.tags.tagsInUse            0                       # Average ticks per tags in use ((Tick/Count))
system.cpu.dtb_walker_cache.tags.totalRefs            0                       # Total number of references to valid blocks. (Count)
system.cpu.dtb_walker_cache.tags.sampledRefs            0                       # Sample count of references to valid blocks. (Count)
system.cpu.dtb_walker_cache.tags.avgRefs          nan                       # Average number of references to valid blocks. ((Count/Count))
system.cpu.dtb_walker_cache.tags.warmupTick            0                       # The tick when the warmup percentage was hit. (Tick)
system.cpu.dtb_walker_cache.tags.tagAccesses            0                       # Number of tag accesses (Count)
system.cpu.dtb_walker_cache.tags.dataAccesses            0                       # Number of data accesses (Count)
system.cpu.dtb_walker_cache.tags.power_state.pwrStateResidencyTicks::UNDEFINED    243573500                       # Cumulative time (in ticks) in various power states (Tick)
system.cpu.executeStats0.numInsts              750158                       # Number of executed instructions (Count)
system.cpu.executeStats0.numNop                     0                       # Number of nop insts executed (Count)
system.cpu.executeStats0.numBranches            73793                       # Number of branches executed (Count)
system.cpu.executeStats0.numLoadInsts           92743                       # Number of load instructions executed (Count)
[...]
system.mem_ctrls.dram.perBankWrBursts::10            0                       # Per bank write bursts (Count)
system.mem_ctrls.dram.perBankWrBursts::11            0                       # Per bank write bursts (Count)
system.mem_ctrls.dram.perBankWrBursts::12            0                       # Per bank write bursts (Count)
system.mem_ctrls.dram.perBankWrBursts::13            0                       # Per bank write bursts (Count)
system.mem_ctrls.dram.perBankWrBursts::14            0                       # Per bank write bursts (Count)
system.mem_ctrls.dram.perBankWrBursts::15            0                       # Per bank write bursts (Count)
system.mem_ctrls.dram.totQLat                22343250                       # Total ticks spent queuing (Tick)
system.mem_ctrls.dram.totBusLat              13970000                       # Total ticks spent in databus transfers (Tick)
system.mem_ctrls.dram.totMemAccLat           74730750                       # Total ticks spent from burst creation until serviced by the DRAM (Tick)
system.mem_ctrls.dram.avgQLat                 7996.87                       # Average queueing delay per DRAM burst ((Tick/Count))
system.mem_ctrls.dram.avgBusLat               5000.00                       # Average bus latency per DRAM burst ((Tick/Count))
system.mem_ctrls.dram.avgMemAccLat           26746.87                       # Average memory access latency per DRAM burst ((Tick/Count))
system.mem_ctrls.dram.readRowHits                2225                       # Number of row buffer hits during reads (Count)
system.mem_ctrls.dram.writeRowHits                  0                       # Number of row buffer hits during writes (Count)
system.mem_ctrls.dram.readRowHitRate            79.63                       # Row buffer hit rate for reads (Ratio)
system.mem_ctrls.dram.writeRowHitRate             nan                       # Row buffer hit rate for writes (Ratio)
system.mem_ctrls.dram.bytesPerActivate::samples          563                       # Bytes accessed per row activation (Byte)
system.mem_ctrls.dram.bytesPerActivate::mean   315.907638                       # Bytes accessed per row activation (Byte)
system.mem_ctrls.dram.bytesPerActivate::gmean   196.031225                       # Bytes accessed per row activation (Byte)
system.mem_ctrls.dram.bytesPerActivate::stdev   312.856326                       # Bytes accessed per row activation (Byte)
system.mem_ctrls.dram.bytesPerActivate::0-127          178     31.62%     31.62% # Bytes accessed per row activation (Byte)
system.mem_ctrls.dram.bytesPerActivate::128-255          146     25.93%     57.55% # Bytes accessed per row activation (Byte)
system.mem_ctrls.dram.bytesPerActivate::256-383           67     11.90%     69.45% # Bytes accessed per row activation (Byte)
system.mem_ctrls.dram.bytesPerActivate::384-511           40      7.10%     76.55% # Bytes accessed per row activation (Byte)
system.mem_ctrls.dram.bytesPerActivate::512-639           31      5.51%     82.06% # Bytes accessed per row activation (Byte)
system.mem_ctrls.dram.bytesPerActivate::640-767           21      3.73%     85.79% # Bytes accessed per row activation (Byte)
system.mem_ctrls.dram.bytesPerActivate::768-895           16      2.84%     88.63% # Bytes accessed per row activation (Byte)
system.mem_ctrls.dram.bytesPerActivate::896-1023            9      1.60%     90.23% # Bytes accessed per row activation (Byte)
system.mem_ctrls.dram.bytesPerActivate::1024-1151           55      9.77%    100.00% # Bytes accessed per row activation (Byte)
system.mem_ctrls.dram.bytesPerActivate::total          563                       # Bytes accessed per row activation (Byte)
system.mem_ctrls.dram.bytesRead                178816                       # Total bytes read (Byte)
system.mem_ctrls.dram.bytesWritten                  0                       # Total bytes written (Byte)
system.mem_ctrls.dram.avgRdBW              734.135692                       # Average DRAM read bandwidth in MiBytes/s ((Byte/Second))
system.mem_ctrls.dram.avgWrBW                       0                       # Average DRAM write bandwidth in MiBytes/s ((Byte/Second))
system.mem_ctrls.dram.peakBW                 12800.00                       # Theoretical peak bandwidth in MiByte/s ((Byte/Second))
system.mem_ctrls.dram.busUtil                    5.74                       # Data bus utilization in percentage (Ratio)
system.mem_ctrls.dram.busUtilRead                5.74                       # Data bus utilization in percentage for reads (Ratio)
system.mem_ctrls.dram.busUtilWrite               0.00                       # Data bus utilization in percentage for writes (Ratio)
system.mem_ctrls.dram.pageHitRate               79.63                       # Row buffer hit rate, read and write combined (Ratio)
system.mem_ctrls.dram.power_state.pwrStateResidencyTicks::UNDEFINED    243573500                       # Cumulative time (in ticks) in various power states (Tick)
system.mem_ctrls.dram.rank0.actEnergy         2006340                       # Energy for activate commands per rank (pJ) (Joule)
system.mem_ctrls.dram.rank0.preEnergy         1058805                       # Energy for precharge commands per rank (pJ) (Joule)
system.mem_ctrls.dram.rank0.readEnergy        9903180                       # Energy for read commands per rank (pJ) (Joule)
system.mem_ctrls.dram.rank0.writeEnergy             0                       # Energy for write commands per rank (pJ) (Joule)
system.mem_ctrls.dram.rank0.refreshEnergy 19053840.000000                       # Energy for refresh commands per rank (pJ) (Joule)
system.mem_ctrls.dram.rank0.actBackEnergy     76230660                       # Energy for active background per rank (pJ) (Joule)
system.mem_ctrls.dram.rank0.preBackEnergy     29338080                       # Energy for precharge background per rank (pJ) (Joule)
system.mem_ctrls.dram.rank0.actPowerDownEnergy            0                       # Energy for active power-down per rank (pJ) (Joule)
system.mem_ctrls.dram.rank0.prePowerDownEnergy            0                       # Energy for precharge power-down per rank (pJ) (Joule)
system.mem_ctrls.dram.rank0.selfRefreshEnergy            0                       # Energy for self refresh per rank (pJ) (Joule)
system.mem_ctrls.dram.rank0.totalEnergy     137590905                       # Total energy per rank (pJ) (Joule)
system.mem_ctrls.dram.rank0.averagePower   564.884542                       # Core power per rank (mW) (Watt)
system.mem_ctrls.dram.rank0.totalIdleTime            0                       # Total Idle time Per DRAM Rank (Tick)
system.mem_ctrls.dram.rank0.pwrStateTime::IDLE     75624500                       # Time in different power states (Tick)
system.mem_ctrls.dram.rank0.pwrStateTime::REF      8060000                       # Time in different power states (Tick)
system.mem_ctrls.dram.rank0.pwrStateTime::SREF            0                       # Time in different power states (Tick)
system.mem_ctrls.dram.rank0.pwrStateTime::PRE_PDN            0                       # Time in different power states (Tick)
system.mem_ctrls.dram.rank0.pwrStateTime::ACT    159889000                       # Time in different power states (Tick)
system.mem_ctrls.dram.rank0.pwrStateTime::ACT_PDN            0                       # Time in different power states (Tick)
system.mem_ctrls.dram.rank1.actEnergy         2056320                       # Energy for activate commands per rank (pJ) (Joule)
system.mem_ctrls.dram.rank1.preEnergy         1077780                       # Energy for precharge commands per rank (pJ) (Joule)
system.mem_ctrls.dram.rank1.readEnergy       10045980                       # Energy for read commands per rank (pJ) (Joule)
system.mem_ctrls.dram.rank1.writeEnergy             0                       # Energy for write commands per rank (pJ) (Joule)
system.mem_ctrls.dram.rank1.refreshEnergy 19053840.000000                       # Energy for refresh commands per rank (pJ) (Joule)
system.mem_ctrls.dram.rank1.actBackEnergy     83367630                       # Energy for active background per rank (pJ) (Joule)
system.mem_ctrls.dram.rank1.preBackEnergy     23328000                       # Energy for precharge background per rank (pJ) (Joule)
system.mem_ctrls.dram.rank1.actPowerDownEnergy            0                       # Energy for active power-down per rank (pJ) (Joule)
system.mem_ctrls.dram.rank1.prePowerDownEnergy            0                       # Energy for precharge power-down per rank (pJ) (Joule)
system.mem_ctrls.dram.rank1.selfRefreshEnergy            0                       # Energy for self refresh per rank (pJ) (Joule)
system.mem_ctrls.dram.rank1.totalEnergy     138929550                       # Total energy per rank (pJ) (Joule)
system.mem_ctrls.dram.rank1.averagePower   570.380399                       # Core power per rank (mW) (Watt)
system.mem_ctrls.dram.rank1.totalIdleTime            0                       # Total Idle time Per DRAM Rank (Tick)
system.mem_ctrls.dram.rank1.pwrStateTime::IDLE     59977750                       # Time in different power states (Tick)
system.mem_ctrls.dram.rank1.pwrStateTime::REF      8060000                       # Time in different power states (Tick)
system.mem_ctrls.dram.rank1.pwrStateTime::SREF            0                       # Time in different power states (Tick)
system.mem_ctrls.dram.rank1.pwrStateTime::PRE_PDN            0                       # Time in different power states (Tick)
system.mem_ctrls.dram.rank1.pwrStateTime::ACT    175535750                       # Time in different power states (Tick)
system.mem_ctrls.dram.rank1.pwrStateTime::ACT_PDN            0                       # Time in different power states (Tick)
system.mem_ctrls.power_state.pwrStateResidencyTicks::UNDEFINED    243573500                       # Cumulative time (in ticks) in various power states (Tick)
system.membus.transDist::ReadResp                2468                       # Transaction distribution (Count)
system.membus.transDist::ReadExReq                326                       # Transaction distribution (Count)
system.membus.transDist::ReadExResp               326                       # Transaction distribution (Count)
system.membus.transDist::ReadSharedReq           2468                       # Transaction distribution (Count)
system.membus.pktCount_system.l2.mem_side_port::system.mem_ctrls.port         5588                       # Packet count per connected requestor and responder (Count)
system.membus.pktCount_system.l2.mem_side_port::total         5588                       # Packet count per connected requestor and responder (Count)
system.membus.pktCount::total                    5588                       # Packet count per connected requestor and responder (Count)
system.membus.pktSize_system.l2.mem_side_port::system.mem_ctrls.port       178816                       # Cumulative packet size per connected requestor and responder (Byte)
system.membus.pktSize_system.l2.mem_side_port::total       178816                       # Cumulative packet size per connected requestor and responder (Byte)
system.membus.pktSize::total                   178816                       # Cumulative packet size per connected requestor and responder (Byte)
system.membus.snoops                                0                       # Total snoops (Count)
system.membus.snoopTraffic                          0                       # Total snoop traffic (Byte)
system.membus.snoopFanout::samples               2794                       # Request fanout histogram (Count)
system.membus.snoopFanout::mean                     0                       # Request fanout histogram (Count)
system.membus.snoopFanout::stdev                    0                       # Request fanout histogram (Count)
system.membus.snoopFanout::underflows               0      0.00%      0.00% # Request fanout histogram (Count)
system.membus.snoopFanout::0                     2794    100.00%    100.00% # Request fanout histogram (Count)
system.membus.snoopFanout::1                        0      0.00%    100.00% # Request fanout histogram (Count)
system.membus.snoopFanout::overflows                0      0.00%    100.00% # Request fanout histogram (Count)
system.membus.snoopFanout::min_value                0                       # Request fanout histogram (Count)
system.membus.snoopFanout::max_value                0                       # Request fanout histogram (Count)
system.membus.snoopFanout::total                 2794                       # Request fanout histogram (Count)
system.membus.power_state.pwrStateResidencyTicks::UNDEFINED    243573500                       # Cumulative time (in ticks) in various power states (Tick)
system.membus.reqLayer2.occupancy             3460000                       # Layer occupancy (ticks) (Tick)
system.membus.reqLayer2.utilization               0.0                       # Layer utilization (Ratio)
system.membus.respLayer1.occupancy           14815250                       # Layer occupancy (ticks) (Tick)
system.membus.respLayer1.utilization              0.1                       # Layer utilization (Ratio)
system.membus.snoop_filter.totRequests           2794                       # Total number of requests made to the snoop filter. (Count)
system.membus.snoop_filter.hitSingleRequests            0                       # Number of requests hitting in the snoop filter with a single holder of the requested data. (Count)
system.membus.snoop_filter.hitMultiRequests            0                       # Number of requests hitting in the snoop filter with multiple (>1) holders of the requested data. (Count)
system.membus.snoop_filter.totSnoops                0                       # Total number of snoops made to the snoop filter. (Count)
system.membus.snoop_filter.hitSingleSnoops            0                       # Number of snoops hitting in the snoop filter with a single holder of the requested data. (Count)
system.membus.snoop_filter.hitMultiSnoops            0                       # Number of snoops hitting in the snoop filter with multiple (>1) holders of the requested data. (Count)
system.tol2bus.transDist::ReadResp               2709                       # Transaction distribution (Count)
system.tol2bus.transDist::WritebackDirty          289                       # Transaction distribution (Count)
system.tol2bus.transDist::WritebackClean         1013                       # Transaction distribution (Count)
system.tol2bus.transDist::CleanEvict              284                       # Transaction distribution (Count)
system.tol2bus.transDist::ReadExReq               344                       # Transaction distribution (Count)
system.tol2bus.transDist::ReadExResp              344                       # Transaction distribution (Count)
system.tol2bus.transDist::ReadCleanReq           1521                       # Transaction distribution (Count)
system.tol2bus.transDist::ReadSharedReq          1189                       # Transaction distribution (Count)
system.tol2bus.pktCount_system.cpu.icache.mem_side_port::system.l2.cpu_side_port         4054                       # Packet count per connected requestor and responder (Count)
system.tol2bus.pktCount_system.cpu.dcache.mem_side_port::system.l2.cpu_side_port         3639                       # Packet count per connected requestor and responder (Count)
system.tol2bus.pktCount::total                   7693                       # Packet count per connected requestor and responder (Count)
system.tol2bus.pktSize_system.cpu.icache.mem_side_port::system.l2.cpu_side_port       162112                       # Cumulative packet size per connected requestor and responder (Byte)
system.tol2bus.pktSize_system.cpu.dcache.mem_side_port::system.l2.cpu_side_port       116608                       # Cumulative packet size per connected requestor and responder (Byte)
system.tol2bus.pktSize::total                  278720                       # Cumulative packet size per connected requestor and responder (Byte)
system.tol2bus.snoops                               0                       # Total snoops (Count)
system.tol2bus.snoopTraffic                         0                       # Total snoop traffic (Byte)
system.tol2bus.snoopFanout::samples              3054                       # Request fanout histogram (Count)
system.tol2bus.snoopFanout::mean             0.000982                       # Request fanout histogram (Count)
system.tol2bus.snoopFanout::stdev            0.031332                       # Request fanout histogram (Count)
system.tol2bus.snoopFanout::underflows              0      0.00%      0.00% # Request fanout histogram (Count)
system.tol2bus.snoopFanout::0                    3051     99.90%     99.90% # Request fanout histogram (Count)
system.tol2bus.snoopFanout::1                       3      0.10%    100.00% # Request fanout histogram (Count)
system.tol2bus.snoopFanout::2                       0      0.00%    100.00% # Request fanout histogram (Count)
system.tol2bus.snoopFanout::3                       0      0.00%    100.00% # Request fanout histogram (Count)
system.tol2bus.snoopFanout::4                       0      0.00%    100.00% # Request fanout histogram (Count)
system.tol2bus.snoopFanout::overflows               0      0.00%    100.00% # Request fanout histogram (Count)
system.tol2bus.snoopFanout::min_value               0                       # Request fanout histogram (Count)
system.tol2bus.snoopFanout::max_value               1                       # Request fanout histogram (Count)
system.tol2bus.snoopFanout::total                3054                       # Request fanout histogram (Count)
system.tol2bus.power_state.pwrStateResidencyTicks::UNDEFINED    243573500                       # Cumulative time (in ticks) in various power states (Tick)
system.tol2bus.reqLayer0.occupancy            3622000                       # Layer occupancy (ticks) (Tick)
system.tol2bus.reqLayer0.utilization              0.0                       # Layer utilization (Ratio)
system.tol2bus.respLayer0.occupancy           2280000                       # Layer occupancy (ticks) (Tick)
system.tol2bus.respLayer0.utilization             0.0                       # Layer utilization (Ratio)
system.tol2bus.respLayer1.occupancy           2299500                       # Layer occupancy (ticks) (Tick)
system.tol2bus.respLayer1.utilization             0.0                       # Layer utilization (Ratio)
system.tol2bus.snoop_filter.totRequests          4640                       # Total number of requests made to the snoop filter. (Count)
system.tol2bus.snoop_filter.hitSingleRequests         1587                       # Number of requests hitting in the snoop filter with a single holder of the requested data. (Count)
system.tol2bus.snoop_filter.hitMultiRequests            2                       # Number of requests hitting in the snoop filter with multiple (>1) holders of the requested data. (Count)
system.tol2bus.snoop_filter.totSnoops               0                       # Total number of snoops made to the snoop filter. (Count)
system.tol2bus.snoop_filter.hitSingleSnoops            0                       # Number of snoops hitting in the snoop filter with a single holder of the requested data. (Count)
system.tol2bus.snoop_filter.hitMultiSnoops            0                       # Number of snoops hitting in the snoop filter with multiple (>1) holders of the requested data. (Count)
system.voltage_domain.voltage                       1                       # Voltage in Volts (Volt)
system.workload.inst.arm                            0                       # number of arm instructions executed (Count)
system.workload.inst.quiesce                        0                       # number of quiesce instructions executed (Count)

---------- End Simulation Statistics   ----------
